dss_files/LineCodes.dss
new LineCode.3p_ug_al_3_3 NPhases=3 Units=km RMatrix=(0.445 0.1745 0.1745 |0.1745 0.445 0.1745 |0.1745 0.1745 0.445 ) XMatrix=(0.5326 0.2912 0.2912 |0.2912 0.5326 0.2912 |0.2912 0.2912 0.5326 ) CMatrix=(145.291 -72.088 -72.088 |-72.088 145.291 -72.088 |-72.088 -72.088 145.291 ) NormAmps=285.0
new LineCode.3p_oh_al_acsr_4/0_penguin_3 NPhases=3 Units=km RMatrix=(0.3635667 0.09006667 0.09006667 |0.09006667 0.3635667 0.09006667 |0.09006667 0.09006667 0.3635667 ) XMatrix=(0.6385333 0.2202333 0.2202333 |0.2202333 0.6385333 0.2202333 |0.2202333 0.2202333 0.6385333 ) CMatrix=(7.4482669999999995 -3.1846329999999994 -3.1846329999999994 |-3.1846329999999994 7.4482669999999995 -3.1846329999999994 |-3.1846329999999994 -3.1846329999999994 7.4482669999999995 ) NormAmps=325.0
new LineCode.3p_oh_code_3_1 NPhases=3 Units=km RMatrix=(0.22464633333333334 0.05016533333333334 0.05016533333333334 |0.05016533333333334 0.22464633333333334 0.05016533333333334 |0.05016533333333334 0.05016533333333334 0.22464633333333334 ) XMatrix=(0.631065 0.188089 0.188089 |0.188089 0.631065 0.188089 |0.188089 0.188089 0.631065 ) CMatrix=(2.8000000000000003 -0.6 -0.6 |-0.6 2.8000000000000003 -0.6 |-0.6 -0.6 2.8000000000000003 ) NormAmps=900.0
new LineCode.3p_ug_al_3 NPhases=3 Units=km RMatrix=(0.3289333 0.05923333 0.05923333 |0.05923333 0.3289333 0.05923333 |0.05923333 0.05923333 0.3289333 ) XMatrix=(0.9076 0.6647 0.6647 |0.6647 0.9076 0.6647 |0.6647 0.6647 0.9076 ) CMatrix=(120.289 -59.026 -59.026 |-59.026 120.289 -59.026 |-59.026 -59.026 120.289 ) NormAmps=295.0
new LineCode.3p_oh_al_acsr_477kcmil_hawk_3 NPhases=3 Units=km RMatrix=(0.1731667 0.05066667 0.05066667 |0.05066667 0.1731667 0.05066667 |0.05066667 0.05066667 0.1731667 ) XMatrix=(0.5780332999999999 0.1957333 0.1957333 |0.1957333 0.5780332999999999 0.1957333 |0.1957333 0.1957333 0.5780332999999999 ) CMatrix=(8.040433 -3.535467 -3.535467 |-3.535467 8.040433 -3.535467 |-3.535467 -3.535467 8.040433 ) NormAmps=595.0
