dss_files/Loads.dss
new Load.load_29160497-d557-46ef-953b-030985e86c82 Phases=3 Bus1=29160497-d557-46ef-953b-030985e86c82.3.2.1 kV=0.83136 kW=44.31430484692485 Model=8 Conn=wye kvar=0.0 ZIPV=[1.0, 0.0, 0.0, 1.0, 0.0, 0.0, 0.0]
new Load.load_21a5c737-9853-4b91-9264-5bba7071c44a Phases=3 Bus1=21a5c737-9853-4b91-9264-5bba7071c44a.3.2.1 kV=0.83136 kW=13.989622751800898 Model=8 Conn=wye kvar=0.0 ZIPV=[1.0, 0.0, 0.0, 1.0, 0.0, 0.0, 0.0]
new Load.load_e5130a20-ee25-47f4-b59a-5f8ae412150f Phases=3 Bus1=e5130a20-ee25-47f4-b59a-5f8ae412150f.3.2.1 kV=0.83136 kW=59.762322058472606 Model=8 Conn=wye kvar=0.0 ZIPV=[1.0, 0.0, 0.0, 1.0, 0.0, 0.0, 0.0]
new Load.load_9037afbd-26b1-473f-ba3f-1eb50330816e Phases=3 Bus1=9037afbd-26b1-473f-ba3f-1eb50330816e.3.2.1 kV=0.83136 kW=10.736037570263361 Model=8 Conn=wye kvar=0.0 ZIPV=[1.0, 0.0, 0.0, 1.0, 0.0, 0.0, 0.0]
new Load.load_328d9cba-e71e-4b41-8d16-17c65132a7be Phases=3 Bus1=328d9cba-e71e-4b41-8d16-17c65132a7be.3.2.1 kV=0.83136 kW=0.6737877037588857 Model=8 Conn=wye kvar=0.0 ZIPV=[1.0, 0.0, 0.0, 1.0, 0.0, 0.0, 0.0]
new Load.load_3d6b4f5c-c488-449a-8284-c2d6435de91a Phases=3 Bus1=3d6b4f5c-c488-449a-8284-c2d6435de91a.3.2.1 kV=0.83136 kW=59.762322058472606 Model=8 Conn=wye kvar=0.0 ZIPV=[1.0, 0.0, 0.0, 1.0, 0.0, 0.0, 0.0]
new Load.load_8fae7822-2811-4dc2-9d00-91a9d534c978 Phases=3 Bus1=8fae7822-2811-4dc2-9d00-91a9d534c978.3.2.1 kV=0.83136 kW=59.762322058472606 Model=8 Conn=wye kvar=0.0 ZIPV=[1.0, 0.0, 0.0, 1.0, 0.0, 0.0, 0.0]
new Load.load_744ce767-07e3-40b1-bb84-8555722e3128 Phases=3 Bus1=744ce767-07e3-40b1-bb84-8555722e3128.3.2.1 kV=0.83136 kW=105.98927248229569 Model=8 Conn=wye kvar=0.0 ZIPV=[1.0, 0.0, 0.0, 1.0, 0.0, 0.0, 0.0]
new Load.load_be03ea98-df62-4721-9c08-8e87b6970974 Phases=3 Bus1=be03ea98-df62-4721-9c08-8e87b6970974.3.2.1 kV=0.83136 kW=50.484057716816594 Model=8 Conn=wye kvar=0.0 ZIPV=[1.0, 0.0, 0.0, 1.0, 0.0, 0.0, 0.0]
new Load.load_f65ebc47-745c-47ea-88a7-abd23fb2fdfc Phases=3 Bus1=f65ebc47-745c-47ea-88a7-abd23fb2fdfc.3.2.1 kV=0.83136 kW=59.762322058472606 Model=8 Conn=wye kvar=0.0 ZIPV=[1.0, 0.0, 0.0, 1.0, 0.0, 0.0, 0.0]
new Load.load_733b5182-ae82-43e4-8e87-502cf52aff85 Phases=3 Bus1=733b5182-ae82-43e4-8e87-502cf52aff85.3.2.1 kV=0.83136 kW=9.4553691529598 Model=8 Conn=wye kvar=0.0 ZIPV=[1.0, 0.0, 0.0, 1.0, 0.0, 0.0, 0.0]
new Load.load_ce68466a-3c9d-4b70-984d-39c2d4c83dfc Phases=3 Bus1=ce68466a-3c9d-4b70-984d-39c2d4c83dfc.3.2.1 kV=0.83136 kW=105.98927248229569 Model=8 Conn=wye kvar=0.0 ZIPV=[1.0, 0.0, 0.0, 1.0, 0.0, 0.0, 0.0]
new Load.load_62926cbf-a806-462a-874d-2491ae8f4891 Phases=3 Bus1=62926cbf-a806-462a-874d-2491ae8f4891.3.2.1 kV=0.83136 kW=11.634325117065096 Model=8 Conn=wye kvar=0.0 ZIPV=[1.0, 0.0, 0.0, 1.0, 0.0, 0.0, 0.0]
new Load.load_6d91fa46-2def-41ac-a44e-0ec1ed25e35a Phases=3 Bus1=6d91fa46-2def-41ac-a44e-0ec1ed25e35a.3.2.1 kV=0.83136 kW=74.80806263935449 Model=8 Conn=wye kvar=0.0 ZIPV=[1.0, 0.0, 0.0, 1.0, 0.0, 0.0, 0.0]
new Load.load_38ddcca1-5a42-4440-b875-c6aab7f58750 Phases=3 Bus1=38ddcca1-5a42-4440-b875-c6aab7f58750.3.2.1 kV=0.83136 kW=49.89226485923074 Model=8 Conn=wye kvar=0.0 ZIPV=[1.0, 0.0, 0.0, 1.0, 0.0, 0.0, 0.0]
new Load.load_d941df2e-20f2-4710-ba05-61ee4d06caa4 Phases=3 Bus1=d941df2e-20f2-4710-ba05-61ee4d06caa4.3.2.1 kV=0.83136 kW=51.261816294054356 Model=8 Conn=wye kvar=0.0 ZIPV=[1.0, 0.0, 0.0, 1.0, 0.0, 0.0, 0.0]
new Load.load_68b90fa4-32a9-48f6-822a-5c14e0262d7a Phases=3 Bus1=68b90fa4-32a9-48f6-822a-5c14e0262d7a.3.2.1 kV=0.83136 kW=8.78178237097024 Model=8 Conn=wye kvar=0.0 ZIPV=[1.0, 0.0, 0.0, 1.0, 0.0, 0.0, 0.0]
new Load.load_1e683ae3-a73e-4457-a587-085dbb419fa5 Phases=3 Bus1=1e683ae3-a73e-4457-a587-085dbb419fa5.3.2.1 kV=0.83136 kW=9.966035109393049 Model=8 Conn=wye kvar=0.0 ZIPV=[1.0, 0.0, 0.0, 1.0, 0.0, 0.0, 0.0]
new Load.load_c9b6ab2c-36b4-4ee9-bc4e-1a63cb1590b7 Phases=3 Bus1=c9b6ab2c-36b4-4ee9-bc4e-1a63cb1590b7.3.2.1 kV=0.83136 kW=21.827907550803605 Model=8 Conn=wye kvar=0.0 ZIPV=[1.0, 0.0, 0.0, 1.0, 0.0, 0.0, 0.0]
new Load.load_bd90ac5e-9f30-4582-9f5c-54eca933fcdc Phases=3 Bus1=bd90ac5e-9f30-4582-9f5c-54eca933fcdc.3.2.1 kV=0.83136 kW=59.762322058472606 Model=8 Conn=wye kvar=0.0 ZIPV=[1.0, 0.0, 0.0, 1.0, 0.0, 0.0, 0.0]
new Load.load_e33a7c36-8f7f-4bc7-b053-54f55c890e5e Phases=3 Bus1=e33a7c36-8f7f-4bc7-b053-54f55c890e5e.3.2.1 kV=0.83136 kW=23.340715099618645 Model=8 Conn=wye kvar=0.0 ZIPV=[1.0, 0.0, 0.0, 1.0, 0.0, 0.0, 0.0]
new Load.load_9198bd4c-8e28-4ef6-8649-f795662f7e47 Phases=3 Bus1=9198bd4c-8e28-4ef6-8649-f795662f7e47.3.2.1 kV=0.83136 kW=5.332507514340655 Model=8 Conn=wye kvar=0.0 ZIPV=[1.0, 0.0, 0.0, 1.0, 0.0, 0.0, 0.0]
new Load.load_38360e68-8bfd-42b0-8464-b194c6e1dc1d Phases=3 Bus1=38360e68-8bfd-42b0-8464-b194c6e1dc1d.3.2.1 kV=0.83136 kW=15.053584835681404 Model=8 Conn=wye kvar=0.0 ZIPV=[1.0, 0.0, 0.0, 1.0, 0.0, 0.0, 0.0]
new Load.load_cf58f485-69e7-4aa0-8336-7281d0779549 Phases=3 Bus1=cf58f485-69e7-4aa0-8336-7281d0779549.3.2.1 kV=0.83136 kW=37.029238630025205 Model=8 Conn=wye kvar=0.0 ZIPV=[1.0, 0.0, 0.0, 1.0, 0.0, 0.0, 0.0]
new Load.load_a16ea384-8006-4c87-8506-1c3e7fcd55e9 Phases=3 Bus1=a16ea384-8006-4c87-8506-1c3e7fcd55e9.3.2.1 kV=0.83136 kW=59.762322058472606 Model=8 Conn=wye kvar=0.0 ZIPV=[1.0, 0.0, 0.0, 1.0, 0.0, 0.0, 0.0]
new Load.load_05c6d8b1-ea32-44e1-85c1-3d5def65086a Phases=3 Bus1=05c6d8b1-ea32-44e1-85c1-3d5def65086a.3.2.1 kV=0.83136 kW=28.62108282411114 Model=8 Conn=wye kvar=0.0 ZIPV=[1.0, 0.0, 0.0, 1.0, 0.0, 0.0, 0.0]
new Load.load_7f6c8c4f-610f-48c1-8ed5-0ea509defebb Phases=3 Bus1=7f6c8c4f-610f-48c1-8ed5-0ea509defebb.3.2.1 kV=0.83136 kW=105.98927248229569 Model=8 Conn=wye kvar=0.0 ZIPV=[1.0, 0.0, 0.0, 1.0, 0.0, 0.0, 0.0]
new Load.load_851c3c74-63d9-4b68-8756-89bd42e7d788 Phases=3 Bus1=851c3c74-63d9-4b68-8756-89bd42e7d788.3.2.1 kV=0.83136 kW=59.762322058472606 Model=8 Conn=wye kvar=0.0 ZIPV=[1.0, 0.0, 0.0, 1.0, 0.0, 0.0, 0.0]
new Load.load_c3f2cf9c-f9a2-4415-8fac-a6aa9ccdd5bd Phases=3 Bus1=c3f2cf9c-f9a2-4415-8fac-a6aa9ccdd5bd.3.2.1 kV=0.83136 kW=23.77052276524788 Model=8 Conn=wye kvar=0.0 ZIPV=[1.0, 0.0, 0.0, 1.0, 0.0, 0.0, 0.0]
new Load.load_d764f7e6-4c13-40b0-a282-93fc2ac856a3 Phases=3 Bus1=d764f7e6-4c13-40b0-a282-93fc2ac856a3.3.2.1 kV=0.83136 kW=105.98927248229569 Model=8 Conn=wye kvar=0.0 ZIPV=[1.0, 0.0, 0.0, 1.0, 0.0, 0.0, 0.0]
new Load.load_51e400dd-7c7c-4f5a-89da-c0f4ea619a3a Phases=3 Bus1=51e400dd-7c7c-4f5a-89da-c0f4ea619a3a.3.2.1 kV=0.83136 kW=10.178430357037856 Model=8 Conn=wye kvar=0.0 ZIPV=[1.0, 0.0, 0.0, 1.0, 0.0, 0.0, 0.0]
new Load.load_29399485-4f29-4710-af7f-6791e8fc381b Phases=3 Bus1=29399485-4f29-4710-af7f-6791e8fc381b.3.2.1 kV=0.83136 kW=2.835321471699118 Model=8 Conn=wye kvar=0.0 ZIPV=[1.0, 0.0, 0.0, 1.0, 0.0, 0.0, 0.0]
new Load.load_900b5abc-ec7f-4ae4-8ff5-a5ed8b86eced Phases=3 Bus1=900b5abc-ec7f-4ae4-8ff5-a5ed8b86eced.3.2.1 kV=0.83136 kW=4.149652184063324 Model=8 Conn=wye kvar=0.0 ZIPV=[1.0, 0.0, 0.0, 1.0, 0.0, 0.0, 0.0]
new Load.load_d667039e-ce84-40cc-ab17-3f2aaf2a92e1 Phases=3 Bus1=d667039e-ce84-40cc-ab17-3f2aaf2a92e1.3.2.1 kV=0.83136 kW=2.89486471693973 Model=8 Conn=wye kvar=0.0 ZIPV=[1.0, 0.0, 0.0, 1.0, 0.0, 0.0, 0.0]
new Load.load_f7166f81-0227-4186-aae6-5131a81df5a3 Phases=3 Bus1=f7166f81-0227-4186-aae6-5131a81df5a3.3.2.1 kV=0.83136 kW=6.165958814750101 Model=8 Conn=wye kvar=0.0 ZIPV=[1.0, 0.0, 0.0, 1.0, 0.0, 0.0, 0.0]
new Load.load_b26a4225-f708-485a-9e6b-7e32e39685b8 Phases=3 Bus1=b26a4225-f708-485a-9e6b-7e32e39685b8.3.2.1 kV=0.83136 kW=59.762322058472606 Model=8 Conn=wye kvar=0.0 ZIPV=[1.0, 0.0, 0.0, 1.0, 0.0, 0.0, 0.0]
new Load.load_779d9f78-74a0-4a10-bea4-0ffcd03ea93d Phases=3 Bus1=779d9f78-74a0-4a10-bea4-0ffcd03ea93d.3.2.1 kV=0.83136 kW=8.78178237097024 Model=8 Conn=wye kvar=0.0 ZIPV=[1.0, 0.0, 0.0, 1.0, 0.0, 0.0, 0.0]
new Load.load_b9d3e2b6-9c11-45aa-ac31-6450e3001efa Phases=3 Bus1=b9d3e2b6-9c11-45aa-ac31-6450e3001efa.3.2.1 kV=0.83136 kW=105.98927248229569 Model=8 Conn=wye kvar=0.0 ZIPV=[1.0, 0.0, 0.0, 1.0, 0.0, 0.0, 0.0]
new Load.load_e1fc24b3-1f74-44a3-9f8e-11bca00319f0 Phases=3 Bus1=e1fc24b3-1f74-44a3-9f8e-11bca00319f0.3.2.1 kV=0.83136 kW=105.98927248229569 Model=8 Conn=wye kvar=0.0 ZIPV=[1.0, 0.0, 0.0, 1.0, 0.0, 0.0, 0.0]
new Load.load_6a9640e9-3a56-412d-b2b0-6dce205c554b Phases=3 Bus1=6a9640e9-3a56-412d-b2b0-6dce205c554b.3.2.1 kV=0.83136 kW=59.762322058472606 Model=8 Conn=wye kvar=0.0 ZIPV=[1.0, 0.0, 0.0, 1.0, 0.0, 0.0, 0.0]
new Load.load_0754658c-cea4-4c89-bfea-cc44efdade3f Phases=3 Bus1=0754658c-cea4-4c89-bfea-cc44efdade3f.3.2.1 kV=0.83136 kW=59.762322058472606 Model=8 Conn=wye kvar=0.0 ZIPV=[1.0, 0.0, 0.0, 1.0, 0.0, 0.0, 0.0]
new Load.load_641fc047-02cc-4bd0-ac73-5d4d6561c687 Phases=3 Bus1=641fc047-02cc-4bd0-ac73-5d4d6561c687.3.2.1 kV=0.83136 kW=2.9290853151441514 Model=8 Conn=wye kvar=0.0 ZIPV=[1.0, 0.0, 0.0, 1.0, 0.0, 0.0, 0.0]
