gis/vsource_24ab4116-d257-41b1-960b-481ced9684f1_Losses.Txt

LOSSES REPORT

Power Delivery Element Loss Report

Element                  kW Losses    % of Power   kvar Losses

"Transformer.EFF844A0-DD37-4E77-A494-164E1DCE4112"   0.45238,    11.79     0.00644011
"Transformer.29B31B94-3157-4AC7-8E8B-F30A48A0F140"   0.79480,     2.04     0.656679
"Transformer.6D43BA94-0951-4E88-AEB0-F8CFC4E65255"   0.57021,     2.46     0.233115
"Transformer.2FF879D8-6A3D-477C-A389-47BEB6A83F3A"   0.57848,     2.41     0.248795
"Transformer.A2993D7C-9584-4AAB-907C-A22BDA4F4BAC"   1.74167,     2.32     2.43028
"Transformer.1E84F720-DAE4-4281-8532-C482FBCECDD6"   0.78161,     2.05     0.631877
"Transformer.4DB7C295-2EF7-4E9F-A1F9-0C121742F152"   0.47065,     4.73     0.0429591
"Transformer.DE6FF399-0752-4E51-A533-A37BBE510ECA"   0.45080,    16.25     0.00340197
"Transformer.DF49BC32-FA1A-4FDF-83E6-EF2560440456"   2.11826,     2.18     3.10238
"Transformer.48715E2F-AFAE-4754-BC9E-E2531E883D45"   2.19912,     2.21     3.26831
"Transformer.8885A901-4236-4205-96FC-38C09358A0C2"   0.75630,     2.06     0.584198
"Transformer.A010DDE2-C171-4BD1-8262-3A962DECF2AF"   0.53659,     2.71     0.168983
"Transformer.EF3A481A-8427-4347-B88A-C5FCC43CC021"   0.83560,     2.03     0.732895
"Transformer.206E2664-F4EB-4C9A-B074-BEEB1B2F5CA3"   1.70932,     2.31     2.36935
"Line.877CF333-40F4-46C9-9655-63BDF2CC6FEA"          0.00000,      0.0     -9.79263E-007
"Line.FAD574BA-14CC-4B1B-B291-635899108E2D"          0.07403,     0.19     0.11318
"Line.8D207078-A9B5-4996-B21C-80F75776F31F"          0.01890,     0.10     0.028874
"Line.2F67C9A5-182F-4870-8FB8-8B22891BE84B"          0.01150,     0.08     0.0175441
"Line.F46D91F5-77D3-430C-A156-2DF10AD4CB7E"          0.00018,      0.0     0.000233752
"Line.2BE4C7CF-8C14-497A-8037-03C9843FD027"          0.01746,     0.09     0.0266679
"Line.C8D01DF3-CEC2-4738-B522-5DC5D94DF8A7"          0.01890,     0.10     0.0288739
"Line.BB28A48B-04A2-4E4A-A0CF-138C9976F6A6"          0.00015,      0.0     0.000193119
"Line.6B5C0779-D737-4B3F-A97B-805FA9E95787"          0.00024,      0.0     -0.000712415
"Line.639C314A-5A45-4A47-8E96-D664C7F0A01F"          0.00020,      0.0     -0.000588711
"Line.142514A6-F12E-4538-AC0B-7A0CA62C1851"          0.02292,     0.12     0.0195229
"Line.4E852749-D578-48AD-88A3-EB5EB06F1A18"          0.00625,     0.03     0.00538951
"Line.8F6916FE-6204-487F-A56D-2F7828F98688"          0.02290,     0.12     0.0195063
"Line.A660FC87-1FA6-440D-B920-682DFF131A81"          0.00000,      0.0     -0.000766181
"Line.995BECB8-2244-4164-9ECC-CF3BCCEB3965"          0.01210,     0.05     0.0104501
"Line.543D91BB-77B4-44F9-9967-70F3174A633C"          0.01187,     0.06     0.0301129
"Line.27672613-BDEF-4AD9-B8B4-7AE45D4227F0"          0.00003,      0.0     6.08661E-005
"Line.7D3D12E5-0D25-4ACF-8FE8-91355A1BF7B0"          0.12060,     0.16     0.306163
"Line.7C0CE3AF-E06B-4BAE-8E8B-8502CFC07E34"          0.00003,      0.0     6.08654E-005
"Line.6D30748C-2539-4F3E-BED6-1143FF216D61"          0.01436,     0.08     0.0364493
"Line.7CB60D0B-9F3E-4988-8442-FA38D74DB0B7"          0.01436,     0.08     0.0364397
"Line.95B53676-22A3-4601-A3E4-087DA71500A5"          0.01436,     0.08     0.0364397
"Line.9774173C-ED81-49A5-B4A6-4D91EFF081AB"          0.02589,     0.07     0.0395848
"Line.1373D0A1-6D79-4C5E-94C2-2FECF7EE1FB8"          0.07216,     0.21     0.110315
"Line.F2073EA4-3733-44D9-BF89-B79830E402FE"          0.00051,      0.0     0.000362384
"Line.8079FE8A-7429-4B08-8EE1-1C1B05B58685"          0.00011,      0.0     -0.000840273
"Line.73C34BAD-AFB1-400B-A551-DC1A34EAF424"          0.00011,      0.0     -0.000223085
"Line.16BF68E7-F68D-4877-9981-28FA35B7C727"          0.03738,     0.11     0.0948993
"Line.9FD5207B-793B-4C7A-BC65-882598034234"          0.00188,     0.02     0.00475222
"Line.A6BBAD24-6A86-4A2D-A54C-DD39A30869EB"          0.00188,     0.02     0.00475223
"Line.B5B5CA3E-EECF-413F-83C9-27544DA3E20D"          0.06774,     0.16     0.171964
"Line.3ABCCD97-AB4D-47D1-8A51-D16AF7E6FE66"          0.12759,     0.13     0.323913
"Line.5C6C2677-4C1E-44F8-BEBD-0F49E5808309"          0.05596,     0.13     0.142062
"Line.DF41D968-2746-485E-96CF-1D17A2DF7A72"          0.04525,     0.13     0.114875
"Line.38F111D3-0096-40DB-B1DE-82B04F194979"          0.00030,      0.0     0.000744192
"Line.03EAEA75-4430-40F7-9C0B-30140A7BB01C"          0.00030,      0.0     0.000744189
"Line.05207CAE-B009-4AD3-9E6E-EC3F125EFCB5"          0.00045,      0.0     0.00113288
"Line.AE22A455-1DA6-4BEF-AF4D-FBBF03A1AFB6"          0.13061,     0.13     0.331602
"Line.74CC104D-A5EE-449B-A652-E1D3180C2FDB"          0.06512,     0.16     0.165314
"Line.E8AF25D7-6D0D-4516-BA5C-675662DBFC78"          0.01006,     0.06     0.0255209
"Line.16FF8291-45CD-44E5-9C6D-9D408102CE4D"          0.00877,     0.05     0.0222616
"Line.C59DD8C6-8EDB-40B7-BFA7-F57ACAA63506"          0.01334,     0.08     0.0113913
"Line.D9319E51-11C2-4EFA-86CD-2936E7BB6017"          0.03846,     0.11     0.0342601
"Line.A2AEC234-98EA-4D0C-9ED3-E0F242B47EE6"          0.01615,     0.10     0.0137877
"Line.68606F15-D049-4EEB-A2E1-79B33FEF3434"          0.02267,     0.12     0.0196527
"Line.AD40A9ED-6CB6-4692-92C1-64F2CB71E310"          0.01044,     0.07     0.00854824
"Line.285500FA-9774-4E71-95CC-E1CA0E31A642"          0.00104,     0.02     0.000159136
"Line.93F75F61-305C-4435-B79C-899617E10783"          0.00474,     0.02     0.0040255
"Line.4392D5F7-FD3B-4F94-8193-993CB646D955"          0.00050,      0.0     0.000714151
"Line.1E0EBC6D-A713-4545-8CF5-E8F2B4D33651"          0.00050,      0.0     0.000714166
"Line.448083E7-6B24-4A05-9ED5-0993FDFBAF48"          0.03094,     0.08     0.047302
"Line.7CF6B07C-A810-4D6C-940A-775787C801C6"          0.00350,     0.05     0.00531407
"Line.67E20689-ACAC-4CD8-B011-396F41D4BC6A"          0.00053,      0.0     0.000771145
"Line.31C2A486-D74A-48BC-A35A-7C6682F5E999"          0.00050,      0.0     0.000714135
"Line.7DBD5DCB-E729-49F8-A2BC-1BC375898270"          0.01894,     0.10     0.0289287
"Line.490D74F7-4EA7-4BBA-A234-3B67DC6A0496"          0.00350,     0.05     0.00531403
"Line.A2418E0E-A8B9-44F0-A614-9DC5460C782F"          0.01894,     0.10     0.0289288
"Line.6157ED28-3D6B-4ADD-BBF3-EC2294D4D5F3"          0.01010,     0.05     0.0314723
"Line.1811E0CC-5188-4F9C-9CCC-F37C7E3F6D09"          0.05633,     0.08     0.175777
"Line.C6DED811-A095-42DC-A5C9-88865016B25F"          0.03341,     0.09     0.104234
"Line.04C0118B-D568-409C-BBF4-4EC2B0E88383"          0.03172,     0.09     0.0989487
"Line.98AF8DCB-F72C-4574-842B-A3B43A14269F"          0.02621,     0.08     0.081746
"Line.DA85670C-1C13-40FB-81BE-5A1BEB924CC5"          0.03172,     0.09     0.0989488
"Line.1B5E46C5-9ACC-43C0-8913-9F95712A2B97"          0.01010,     0.05     0.0314724
"Line.D95C8201-34F5-4B21-9DDA-4292E19C4252"          0.00182,     0.00     -1.33678
"Line.33D623CF-6BCC-42CF-907B-EE109CAA8ED2"          0.00000,      0.0     -0.00182975
"Line.2B697AE9-5FE4-4E04-995B-70145D61D5B8"          0.00000,      0.0     -0.00183213
"Line.537C861C-68B1-4A86-9A50-FFDD5F0582DA"          0.00000,      0.0     -0.00183319
"Line.348C2F2F-E9D5-481E-A391-BA42EDC91849"          0.00714,     0.00     -1.90447
"Line.9B2473D7-6414-403A-A6D8-D7F82477DCB3"          0.00047,      0.0     -0.464007
"Line.2F772B75-C2C6-43C3-A744-4A4B4CB4F8E9"          0.00038,      0.0     -0.497607
"Line.6E9B092F-DACA-4D80-B421-2A7732E8B80B"          0.00664,     0.00     -1.76786
"Line.23D70553-1AB7-41A0-A638-3FBCDDA1BE20"          0.02315,     0.01     -1.81176
"Line.455781F5-ACF5-4FB2-8695-C3E513AF692D"          0.00043,      0.0     -1.8754
"Line.AE7B102F-1EA8-4EDC-83B4-FFE4123DC43E"          0.00005,      0.0     -0.0126941
"Line.9E69CF87-D045-4E37-A233-66D7598247D9"          0.00000,      0.0     -0.00183134
"Line.FED73BEC-B009-48DD-A82E-4ED6A45F1D53"          0.00357,     0.00     -0.653054
"Line.2816DE66-B63F-4529-94FC-768372C697D6"          0.01038,     0.01     -1.90073
"Line.45A2DFAD-6A05-4B83-8BEA-4E831F07B2ED"          0.00000,      0.0     -0.00183181
"Line.CAEF3B81-A1B3-4F5B-B574-47EF1A259CC3"          0.00000,      0.0     -1.27192
"Line.04416961-B233-4746-9215-DDF70FDFEC3E"          0.00000,      0.0     -0.00182993
"Line.DF917A3E-886A-47F6-9E42-6BE3A5E8BAB5"          0.00054,      0.0     -1.77506
"Line.CF657060-0EE0-4884-9ED0-C3FCE59AB4CC"          0.00000,      0.0     -0.518525
"Line.00E7BC42-6F48-4D86-A8F8-EC99F52AA461"          0.00550,     0.00     -1.54414
"Line.F11F099C-7DBB-4DB5-A904-BB9C63A46A5C"          0.02110,     0.01     -1.89182
"Line.05AB861A-9A0F-4DCF-8F05-4DC8E847D936"          0.00049,      0.0     -1.53369
"Line.3251C5F3-D1AC-4207-9348-16F754D63E16"          0.00007,      0.0     -0.0126722
"Line.7F8FBEDA-D441-47AA-9571-8C4526AD4C3F"          0.00000,      0.0     -0.00183191
"Line.39E5BB8C-18DF-48D3-A613-BF407E285D6B"          0.00058,      0.0     -1.90961
"Line.DA10C1D6-6A6F-49D0-9C76-2E47CADB21B1"          0.05643,     0.01     -1.53423
"Line.01151C85-B3C9-4BD4-BB37-8C683C6984DA"          0.00000,      0.0     -0.00183215
"Line.13E9F1F6-F1E4-4B84-8EB3-A2493D9CFA01"          0.00000,      0.0     -0.00183291
"Line.A4414604-1E55-4C73-BC10-C21907289942"          0.00678,     0.00     -1.9042
"Line.679038C7-F667-4A40-8533-7DBA1ABFA81A"          0.00000,      0.0     -0.00183224
"Line.A9038B6F-83E5-4DB1-83DD-0B3BB7E9B269"          0.00034,      0.0     -1.64664
"Line.2AEA38CA-FC4D-4EEC-BC7D-C5D2152293D3"          0.00000,      0.0     -0.012731
"Line.21604686-F982-4C16-8A23-104A35C5CCC6"          0.02110,     0.01     -1.89153
"Line.9B8F8FF3-5504-467D-A68D-F196E246AFA0"          0.00713,     0.00     -1.90434
"Line.7E3A38A9-C0B8-499E-AEDE-F94620429FDB"          0.00975,     0.00     -0.873958
"Line.CCE9322C-25B8-48A0-B5CA-9395BBA79765"          0.00030,      0.0     -1.50584
"Line.481AD6E7-2A13-4957-8EA3-8580D42C0F76"          0.00000,      0.0     -0.00183221
"Line.F8D339AA-97D8-49F7-AEB1-F322F95AC977"          0.00005,      0.0     -0.668519
"Line.6C496E46-9DCE-4F1B-9EAE-8B601DB9857D"          0.00000,      0.0     -0.00183184
"Line.D5103536-FBDC-4D6D-B4A2-A2215CFC915C"          0.00023,      0.0     -0.0615235
"Line.D71BBCFE-E662-4056-9991-E39B4EA0F57C"          0.00000,      0.0     -0.00183104
"Line.EDC4E8D5-E661-4D05-8F35-B2A75B9C377A"          0.00005,      0.0     -0.0126942
"Line.4D9547EA-A18C-433C-8497-A7C6AE24D23F"          0.00712,     0.00     -1.9042
"Line.7F40FEDB-C96A-490E-9065-C45F594CDE1D"          0.00014,      0.0     -0.012613
"Line.5BF5FAF5-24DE-4138-A22D-BA16E754E3CC"          0.00000,      0.0     -0.00183269

LINE LOSSES=                         1.6 kW
TRANSFORMER LOSSES=                 14.0 kW

TOTAL LOSSES=                       15.6 kW

TOTAL LOAD POWER =                 568.7 kW
Percent Losses for Circuit =      2.74 %
