gis/vsource_24ab4116-d257-41b1-960b-481ced9684f1_Power_elem_kVA.txt

CIRCUIT ELEMENT POWER FLOW

(Power Flow into element from indicated Bus)

Power Delivery Elements

  Bus                                   Phase     kW     +j   kvar         kVA         PF

ELEMENT = "Vsource.SOURCE"
24AB4116-D257-41B1-960B-481CED9684F1        3      -194.8 +j      6.4      194.9      -0.9995
24AB4116-D257-41B1-960B-481CED9684F1        1      -194.8 +j      6.4      194.9      -0.9995
24AB4116-D257-41B1-960B-481CED9684F1        2      -194.8 +j      6.4      194.9      -0.9995
   TERMINAL TOTAL ...............................  -584.3 +j     19.1      584.6      -0.9995
24AB4116-D257-41B1-960B-481CED9684F1        0         0.0 +j      0.0        0.0       1.0000
24AB4116-D257-41B1-960B-481CED9684F1        0         0.0 +j      0.0        0.0       1.0000
24AB4116-D257-41B1-960B-481CED9684F1        0         0.0 +j      0.0        0.0       1.0000
   TERMINAL TOTAL ...............................     0.0 +j      0.0        0.0       1.0000

ELEMENT = "Transformer.EFF844A0-DD37-4E77-A494-164E1DCE4112"
5FF9A8DC-E808-48B4-9A51-B4EF0C8AAE7D_HT     1         1.3 +j      0.0        1.3       1.0000
5FF9A8DC-E808-48B4-9A51-B4EF0C8AAE7D_HT     2         1.3 +j      0.0        1.3       1.0000
5FF9A8DC-E808-48B4-9A51-B4EF0C8AAE7D_HT     3         1.3 +j      0.0        1.3       1.0000
5FF9A8DC-E808-48B4-9A51-B4EF0C8AAE7D_HT     0         0.0 +j      0.0        0.0       1.0000
   TERMINAL TOTAL ...............................     3.8 +j      0.0        3.8       1.0000
5FF9A8DC-E808-48B4-9A51-B4EF0C8AAE7D        1        -1.1 +j      0.0        1.1      -1.0000
5FF9A8DC-E808-48B4-9A51-B4EF0C8AAE7D        2        -1.1 +j      0.0        1.1      -1.0000
5FF9A8DC-E808-48B4-9A51-B4EF0C8AAE7D        3        -1.1 +j      0.0        1.1      -1.0000
5FF9A8DC-E808-48B4-9A51-B4EF0C8AAE7D        0         0.0 +j      0.0        0.0       1.0000
   TERMINAL TOTAL ...............................    -3.4 +j      0.0        3.4      -1.0000

ELEMENT = "Transformer.29B31B94-3157-4AC7-8E8B-F30A48A0F140"
EF7E1CF1-F33B-4256-8A55-AD94FBC7A080_HT     1        13.0 +j      0.3       13.0       0.9997
EF7E1CF1-F33B-4256-8A55-AD94FBC7A080_HT     2        13.0 +j      0.3       13.0       0.9997
EF7E1CF1-F33B-4256-8A55-AD94FBC7A080_HT     3        13.0 +j      0.3       13.0       0.9997
EF7E1CF1-F33B-4256-8A55-AD94FBC7A080_HT     0         0.0 +j      0.0        0.0       1.0000
   TERMINAL TOTAL ...............................    39.0 +j      0.9       39.0       0.9997
EF7E1CF1-F33B-4256-8A55-AD94FBC7A080        1       -12.7 +j     -0.1       12.7       1.0000
EF7E1CF1-F33B-4256-8A55-AD94FBC7A080        2       -12.7 +j     -0.1       12.7       1.0000
EF7E1CF1-F33B-4256-8A55-AD94FBC7A080        3       -12.7 +j     -0.1       12.7       1.0000
EF7E1CF1-F33B-4256-8A55-AD94FBC7A080        0         0.0 +j      0.0        0.0       1.0000
   TERMINAL TOTAL ...............................   -38.2 +j     -0.2       38.2       1.0000

ELEMENT = "Transformer.6D43BA94-0951-4E88-AEB0-F8CFC4E65255"
C06E8B04-406C-4505-9A7D-CAA26D521809_HT     1         7.7 +j      0.1        7.7       0.9999
C06E8B04-406C-4505-9A7D-CAA26D521809_HT     2         7.7 +j      0.1        7.7       0.9999
C06E8B04-406C-4505-9A7D-CAA26D521809_HT     3         7.7 +j      0.1        7.7       0.9999
C06E8B04-406C-4505-9A7D-CAA26D521809_HT     0         0.0 +j      0.0        0.0       1.0000
   TERMINAL TOTAL ...............................    23.2 +j      0.3       23.2       0.9999
C06E8B04-406C-4505-9A7D-CAA26D521809        1        -7.5 +j     -0.0        7.5       1.0000
C06E8B04-406C-4505-9A7D-CAA26D521809        2        -7.5 +j     -0.0        7.5       1.0000
C06E8B04-406C-4505-9A7D-CAA26D521809        3        -7.5 +j     -0.0        7.5       1.0000
C06E8B04-406C-4505-9A7D-CAA26D521809        0         0.0 +j      0.0        0.0       1.0000
   TERMINAL TOTAL ...............................   -22.6 +j     -0.0       22.6       1.0000

ELEMENT = "Transformer.2FF879D8-6A3D-477C-A389-47BEB6A83F3A"
18DF96D8-A15C-4473-95AE-8731C654A42A_HT     1         8.0 +j      0.1        8.0       0.9999
18DF96D8-A15C-4473-95AE-8731C654A42A_HT     2         8.0 +j      0.1        8.0       0.9999
18DF96D8-A15C-4473-95AE-8731C654A42A_HT     3         8.0 +j      0.1        8.0       0.9999
18DF96D8-A15C-4473-95AE-8731C654A42A_HT     0         0.0 +j      0.0        0.0       1.0000
   TERMINAL TOTAL ...............................    24.0 +j      0.3       24.0       0.9999
18DF96D8-A15C-4473-95AE-8731C654A42A        1        -7.8 +j     -0.0        7.8       1.0000
18DF96D8-A15C-4473-95AE-8731C654A42A        2        -7.8 +j     -0.0        7.8       1.0000
18DF96D8-A15C-4473-95AE-8731C654A42A        3        -7.8 +j     -0.0        7.8       1.0000
18DF96D8-A15C-4473-95AE-8731C654A42A        0         0.0 +j      0.0        0.0       1.0000
   TERMINAL TOTAL ...............................   -23.4 +j     -0.0       23.4       1.0000

ELEMENT = "Transformer.A2993D7C-9584-4AAB-907C-A22BDA4F4BAC"
8D61CE66-3CE3-48F6-8819-7AACD2C1C768_HT     1        25.0 +j      1.0       25.0       0.9993
8D61CE66-3CE3-48F6-8819-7AACD2C1C768_HT     2        25.0 +j      1.0       25.0       0.9993
8D61CE66-3CE3-48F6-8819-7AACD2C1C768_HT     3        25.0 +j      1.0       25.0       0.9993
8D61CE66-3CE3-48F6-8819-7AACD2C1C768_HT     0         0.0 +j      0.0        0.0       1.0000
   TERMINAL TOTAL ...............................    74.9 +j      2.9       75.0       0.9993
8D61CE66-3CE3-48F6-8819-7AACD2C1C768        1       -24.4 +j     -0.1       24.4       1.0000
8D61CE66-3CE3-48F6-8819-7AACD2C1C768        2       -24.4 +j     -0.1       24.4       1.0000
8D61CE66-3CE3-48F6-8819-7AACD2C1C768        3       -24.4 +j     -0.1       24.4       1.0000
8D61CE66-3CE3-48F6-8819-7AACD2C1C768        0         0.0 +j      0.0        0.0       1.0000
   TERMINAL TOTAL ...............................   -73.2 +j     -0.4       73.2       1.0000

ELEMENT = "Transformer.1E84F720-DAE4-4281-8532-C482FBCECDD6"
19D1EB19-8C54-4ED6-96D5-F236737EB4A8_HT     1        12.7 +j      0.3       12.7       0.9998
19D1EB19-8C54-4ED6-96D5-F236737EB4A8_HT     2        12.7 +j      0.3       12.7       0.9998
19D1EB19-8C54-4ED6-96D5-F236737EB4A8_HT     3        12.7 +j      0.3       12.7       0.9998
19D1EB19-8C54-4ED6-96D5-F236737EB4A8_HT     0         0.0 +j      0.0        0.0       1.0000
   TERMINAL TOTAL ...............................    38.2 +j      0.8       38.2       0.9998
19D1EB19-8C54-4ED6-96D5-F236737EB4A8        1       -12.5 +j     -0.0       12.5       1.0000
19D1EB19-8C54-4ED6-96D5-F236737EB4A8        2       -12.5 +j     -0.0       12.5       1.0000
19D1EB19-8C54-4ED6-96D5-F236737EB4A8        3       -12.5 +j     -0.0       12.5       1.0000
19D1EB19-8C54-4ED6-96D5-F236737EB4A8        0         0.0 +j      0.0        0.0       1.0000
   TERMINAL TOTAL ...............................   -37.4 +j     -0.1       37.4       1.0000

ELEMENT = "Transformer.4DB7C295-2EF7-4E9F-A1F9-0C121742F152"
FDE6C6F0-66F1-43EE-94BB-65C3F330BD74_HT     1         3.3 +j      0.0        3.3       1.0000
FDE6C6F0-66F1-43EE-94BB-65C3F330BD74_HT     2         3.3 +j      0.0        3.3       1.0000
FDE6C6F0-66F1-43EE-94BB-65C3F330BD74_HT     3         3.3 +j      0.0        3.3       1.0000
FDE6C6F0-66F1-43EE-94BB-65C3F330BD74_HT     0         0.0 +j      0.0        0.0       1.0000
   TERMINAL TOTAL ...............................    10.0 +j      0.0       10.0       1.0000
FDE6C6F0-66F1-43EE-94BB-65C3F330BD74        1        -3.2 +j     -0.0        3.2       1.0000
FDE6C6F0-66F1-43EE-94BB-65C3F330BD74        2        -3.2 +j     -0.0        3.2       1.0000
FDE6C6F0-66F1-43EE-94BB-65C3F330BD74        3        -3.2 +j     -0.0        3.2       1.0000
FDE6C6F0-66F1-43EE-94BB-65C3F330BD74        0         0.0 +j      0.0        0.0       1.0000
   TERMINAL TOTAL ...............................    -9.5 +j     -0.0        9.5       1.0000

ELEMENT = "Transformer.DE6FF399-0752-4E51-A533-A37BBE510ECA"
1E49A5A7-CEC4-415A-8EA3-33F157D3592A_HT     1         0.9 +j      0.0        0.9       1.0000
1E49A5A7-CEC4-415A-8EA3-33F157D3592A_HT     2         0.9 +j      0.0        0.9       1.0000
1E49A5A7-CEC4-415A-8EA3-33F157D3592A_HT     3         0.9 +j      0.0        0.9       1.0000
1E49A5A7-CEC4-415A-8EA3-33F157D3592A_HT     0         0.0 +j      0.0        0.0       1.0000
   TERMINAL TOTAL ...............................     2.8 +j      0.0        2.8       1.0000
1E49A5A7-CEC4-415A-8EA3-33F157D3592A        1        -0.8 +j      0.0        0.8      -1.0000
1E49A5A7-CEC4-415A-8EA3-33F157D3592A        2        -0.8 +j      0.0        0.8      -1.0000
1E49A5A7-CEC4-415A-8EA3-33F157D3592A        3        -0.8 +j      0.0        0.8      -1.0000
1E49A5A7-CEC4-415A-8EA3-33F157D3592A        0         0.0 +j      0.0        0.0       1.0000
   TERMINAL TOTAL ...............................    -2.3 +j      0.0        2.3      -1.0000

ELEMENT = "Transformer.DF49BC32-FA1A-4FDF-83E6-EF2560440456"
55B8B78C-31CD-4574-90AA-BF37208FAEA1_HT     1        32.3 +j      1.3       32.4       0.9992
55B8B78C-31CD-4574-90AA-BF37208FAEA1_HT     2        32.3 +j      1.3       32.4       0.9992
55B8B78C-31CD-4574-90AA-BF37208FAEA1_HT     3        32.3 +j      1.3       32.4       0.9992
55B8B78C-31CD-4574-90AA-BF37208FAEA1_HT     0         0.0 +j      0.0        0.0       1.0000
   TERMINAL TOTAL ...............................    97.0 +j      4.0       97.1       0.9992
55B8B78C-31CD-4574-90AA-BF37208FAEA1        1       -31.6 +j     -0.3       31.6       1.0000
55B8B78C-31CD-4574-90AA-BF37208FAEA1        2       -31.6 +j     -0.3       31.6       1.0000
55B8B78C-31CD-4574-90AA-BF37208FAEA1        3       -31.6 +j     -0.3       31.6       1.0000
55B8B78C-31CD-4574-90AA-BF37208FAEA1        0         0.0 +j      0.0        0.0       1.0000
   TERMINAL TOTAL ...............................   -94.9 +j     -0.9       94.9       1.0000

ELEMENT = "Transformer.48715E2F-AFAE-4754-BC9E-E2531E883D45"
79B5B874-4748-484A-9185-E5D5B14ABC7D_HT     1        33.2 +j      1.3       33.2       0.9993
79B5B874-4748-484A-9185-E5D5B14ABC7D_HT     2        33.2 +j      1.3       33.2       0.9993
79B5B874-4748-484A-9185-E5D5B14ABC7D_HT     3        33.2 +j      1.3       33.2       0.9993
79B5B874-4748-484A-9185-E5D5B14ABC7D_HT     0         0.0 +j      0.0        0.0       1.0000
   TERMINAL TOTAL ...............................    99.6 +j      3.8       99.6       0.9993
79B5B874-4748-484A-9185-E5D5B14ABC7D        1       -32.5 +j     -0.2       32.5       1.0000
79B5B874-4748-484A-9185-E5D5B14ABC7D        2       -32.5 +j     -0.2       32.5       1.0000
79B5B874-4748-484A-9185-E5D5B14ABC7D        3       -32.5 +j     -0.2       32.5       1.0000
79B5B874-4748-484A-9185-E5D5B14ABC7D        0         0.0 +j      0.0        0.0       1.0000
   TERMINAL TOTAL ...............................   -97.4 +j     -0.5       97.4       1.0000

ELEMENT = "Transformer.8885A901-4236-4205-96FC-38C09358A0C2"
DCDE0BFE-3A3D-4FF8-8A75-7CC11B4D34A1_HT     1        12.3 +j      0.2       12.3       0.9998
DCDE0BFE-3A3D-4FF8-8A75-7CC11B4D34A1_HT     2        12.3 +j      0.2       12.3       0.9998
DCDE0BFE-3A3D-4FF8-8A75-7CC11B4D34A1_HT     3        12.3 +j      0.2       12.3       0.9998
DCDE0BFE-3A3D-4FF8-8A75-7CC11B4D34A1_HT     0         0.0 +j      0.0        0.0       1.0000
   TERMINAL TOTAL ...............................    36.8 +j      0.7       36.8       0.9998
DCDE0BFE-3A3D-4FF8-8A75-7CC11B4D34A1        1       -12.0 +j     -0.0       12.0       1.0000
DCDE0BFE-3A3D-4FF8-8A75-7CC11B4D34A1        2       -12.0 +j     -0.0       12.0       1.0000
DCDE0BFE-3A3D-4FF8-8A75-7CC11B4D34A1        3       -12.0 +j     -0.0       12.0       1.0000
DCDE0BFE-3A3D-4FF8-8A75-7CC11B4D34A1        0         0.0 +j      0.0        0.0       1.0000
   TERMINAL TOTAL ...............................   -36.0 +j     -0.1       36.0       1.0000

ELEMENT = "Transformer.A010DDE2-C171-4BD1-8262-3A962DECF2AF"
FF4E789F-8CC0-412D-801F-775A88FD5D87_HT     1         6.6 +j      0.1        6.6       1.0000
FF4E789F-8CC0-412D-801F-775A88FD5D87_HT     2         6.6 +j      0.1        6.6       1.0000
FF4E789F-8CC0-412D-801F-775A88FD5D87_HT     3         6.6 +j      0.1        6.6       1.0000
FF4E789F-8CC0-412D-801F-775A88FD5D87_HT     0         0.0 +j      0.0        0.0       1.0000
   TERMINAL TOTAL ...............................    19.8 +j      0.2       19.8       1.0000
FF4E789F-8CC0-412D-801F-775A88FD5D87        1        -6.4 +j     -0.0        6.4       1.0000
FF4E789F-8CC0-412D-801F-775A88FD5D87        2        -6.4 +j     -0.0        6.4       1.0000
FF4E789F-8CC0-412D-801F-775A88FD5D87        3        -6.4 +j     -0.0        6.4       1.0000
FF4E789F-8CC0-412D-801F-775A88FD5D87        0         0.0 +j      0.0        0.0       1.0000
   TERMINAL TOTAL ...............................   -19.2 +j     -0.0       19.2       1.0000

ELEMENT = "Transformer.EF3A481A-8427-4347-B88A-C5FCC43CC021"
4CB1E7C3-C716-481D-A9CC-7B522F1AD926_HT     1        13.7 +j      0.3       13.7       0.9998
4CB1E7C3-C716-481D-A9CC-7B522F1AD926_HT     2        13.7 +j      0.3       13.7       0.9998
4CB1E7C3-C716-481D-A9CC-7B522F1AD926_HT     3        13.7 +j      0.3       13.7       0.9998
4CB1E7C3-C716-481D-A9CC-7B522F1AD926_HT     0         0.0 +j      0.0        0.0       1.0000
   TERMINAL TOTAL ...............................    41.2 +j      0.9       41.2       0.9998
4CB1E7C3-C716-481D-A9CC-7B522F1AD926        1       -13.4 +j     -0.0       13.4       1.0000
4CB1E7C3-C716-481D-A9CC-7B522F1AD926        2       -13.4 +j     -0.0       13.4       1.0000
4CB1E7C3-C716-481D-A9CC-7B522F1AD926        3       -13.4 +j     -0.0       13.4       1.0000
4CB1E7C3-C716-481D-A9CC-7B522F1AD926        0         0.0 +j      0.0        0.0       1.0000
   TERMINAL TOTAL ...............................   -40.3 +j     -0.1       40.3       1.0000

ELEMENT = "Transformer.206E2664-F4EB-4C9A-B074-BEEB1B2F5CA3"
3D69988E-D438-41D1-8509-A035E81E2F4E_HT     1        24.7 +j      1.0       24.7       0.9992
3D69988E-D438-41D1-8509-A035E81E2F4E_HT     2        24.7 +j      1.0       24.7       0.9992
3D69988E-D438-41D1-8509-A035E81E2F4E_HT     3        24.7 +j      1.0       24.7       0.9992
3D69988E-D438-41D1-8509-A035E81E2F4E_HT     0         0.0 +j      0.0        0.0       1.0000
   TERMINAL TOTAL ...............................    74.0 +j      3.0       74.1       0.9992
3D69988E-D438-41D1-8509-A035E81E2F4E        1       -24.1 +j     -0.2       24.1       1.0000
3D69988E-D438-41D1-8509-A035E81E2F4E        2       -24.1 +j     -0.2       24.1       1.0000
3D69988E-D438-41D1-8509-A035E81E2F4E        3       -24.1 +j     -0.2       24.1       1.0000
3D69988E-D438-41D1-8509-A035E81E2F4E        0         0.0 +j      0.0        0.0       1.0000
   TERMINAL TOTAL ...............................   -72.3 +j     -0.6       72.3       1.0000

ELEMENT = "Line.877CF333-40F4-46C9-9655-63BDF2CC6FEA"
5FF9A8DC-E808-48B4-9A51-B4EF0C8AAE7D        1         1.1 +j     -0.0        1.1      -1.0000
5FF9A8DC-E808-48B4-9A51-B4EF0C8AAE7D        2         1.1 +j     -0.0        1.1      -1.0000
5FF9A8DC-E808-48B4-9A51-B4EF0C8AAE7D        3         1.1 +j     -0.0        1.1      -1.0000
   TERMINAL TOTAL ...............................     3.4 +j     -0.0        3.4      -1.0000
51E400DD-7C7C-4F5A-89DA-C0F4EA619A3A        1        -1.1 +j      0.0        1.1      -1.0000
51E400DD-7C7C-4F5A-89DA-C0F4EA619A3A        2        -1.1 +j      0.0        1.1      -1.0000
51E400DD-7C7C-4F5A-89DA-C0F4EA619A3A        3        -1.1 +j      0.0        1.1      -1.0000
   TERMINAL TOTAL ...............................    -3.4 +j      0.0        3.4      -1.0000

ELEMENT = "Line.FAD574BA-14CC-4B1B-B291-635899108E2D"
EF7E1CF1-F33B-4256-8A55-AD94FBC7A080        1        12.7 +j      0.1       12.7       1.0000
EF7E1CF1-F33B-4256-8A55-AD94FBC7A080        2        12.7 +j      0.1       12.7       1.0000
EF7E1CF1-F33B-4256-8A55-AD94FBC7A080        3        12.7 +j      0.1       12.7       1.0000
   TERMINAL TOTAL ...............................    38.2 +j      0.2       38.2       1.0000
64ACED96-2084-4E76-ADCB-C62B326A9160        1       -12.7 +j     -0.0       12.7       1.0000
64ACED96-2084-4E76-ADCB-C62B326A9160        2       -12.7 +j     -0.0       12.7       1.0000
64ACED96-2084-4E76-ADCB-C62B326A9160        3       -12.7 +j     -0.0       12.7       1.0000
   TERMINAL TOTAL ...............................   -38.1 +j     -0.1       38.1       1.0000

ELEMENT = "Line.8D207078-A9B5-4996-B21C-80F75776F31F"
93A748B0-12E1-46B5-AE71-8DB863F5527E        1         6.5 +j      0.0        6.5       1.0000
93A748B0-12E1-46B5-AE71-8DB863F5527E        2         6.5 +j      0.0        6.5       1.0000
93A748B0-12E1-46B5-AE71-8DB863F5527E        3         6.5 +j      0.0        6.5       1.0000
   TERMINAL TOTAL ...............................    19.4 +j      0.0       19.4       1.0000
A16EA384-8006-4C87-8506-1C3E7FCD55E9        1        -6.5 +j      0.0        6.5      -1.0000
A16EA384-8006-4C87-8506-1C3E7FCD55E9        2        -6.5 +j     -0.0        6.5       1.0000
A16EA384-8006-4C87-8506-1C3E7FCD55E9        3        -6.5 +j     -0.0        6.5       1.0000
   TERMINAL TOTAL ...............................   -19.4 +j      0.0       19.4      -1.0000

ELEMENT = "Line.2F67C9A5-182F-4870-8FB8-8B22891BE84B"
38360E68-8BFD-42B0-8464-B194C6E1DC1D        1         4.6 +j      0.0        4.6       1.0000
38360E68-8BFD-42B0-8464-B194C6E1DC1D        2         4.6 +j      0.0        4.6       1.0000
38360E68-8BFD-42B0-8464-B194C6E1DC1D        3         4.6 +j      0.0        4.6       1.0000
   TERMINAL TOTAL ...............................    13.8 +j      0.0       13.8       1.0000
CF58F485-69E7-4AA0-8336-7281D0779549        1        -4.6 +j     -0.0        4.6       1.0000
CF58F485-69E7-4AA0-8336-7281D0779549        2        -4.6 +j     -0.0        4.6       1.0000
CF58F485-69E7-4AA0-8336-7281D0779549        3        -4.6 +j     -0.0        4.6       1.0000
   TERMINAL TOTAL ...............................   -13.7 +j     -0.0       13.7       1.0000

ELEMENT = "Line.F46D91F5-77D3-430C-A156-2DF10AD4CB7E"
CF58F485-69E7-4AA0-8336-7281D0779549        1         0.6 +j      0.0        0.6       1.0000
CF58F485-69E7-4AA0-8336-7281D0779549        2         0.6 +j      0.0        0.6       1.0000
CF58F485-69E7-4AA0-8336-7281D0779549        3         0.6 +j      0.0        0.6       1.0000
   TERMINAL TOTAL ...............................     1.7 +j      0.0        1.7       1.0000
AEADCD37-355F-4DD5-B765-7F68478228A0        1        -0.6 +j     -0.0        0.6       1.0000
AEADCD37-355F-4DD5-B765-7F68478228A0        2        -0.6 +j     -0.0        0.6       1.0000
AEADCD37-355F-4DD5-B765-7F68478228A0        3        -0.6 +j     -0.0        0.6       1.0000
   TERMINAL TOTAL ...............................    -1.7 +j     -0.0        1.7       1.0000

ELEMENT = "Line.2BE4C7CF-8C14-497A-8037-03C9843FD027"
64ACED96-2084-4E76-ADCB-C62B326A9160        1         6.2 +j      0.0        6.2       1.0000
64ACED96-2084-4E76-ADCB-C62B326A9160        2         6.2 +j      0.0        6.2       1.0000
64ACED96-2084-4E76-ADCB-C62B326A9160        3         6.2 +j      0.0        6.2       1.0000
   TERMINAL TOTAL ...............................    18.7 +j      0.0       18.7       1.0000
38360E68-8BFD-42B0-8464-B194C6E1DC1D        1        -6.2 +j     -0.0        6.2       1.0000
38360E68-8BFD-42B0-8464-B194C6E1DC1D        2        -6.2 +j     -0.0        6.2       1.0000
38360E68-8BFD-42B0-8464-B194C6E1DC1D        3        -6.2 +j     -0.0        6.2       1.0000
   TERMINAL TOTAL ...............................   -18.7 +j     -0.0       18.7       1.0000

ELEMENT = "Line.C8D01DF3-CEC2-4738-B522-5DC5D94DF8A7"
64ACED96-2084-4E76-ADCB-C62B326A9160        1         6.5 +j      0.0        6.5       1.0000
64ACED96-2084-4E76-ADCB-C62B326A9160        2         6.5 +j      0.0        6.5       1.0000
64ACED96-2084-4E76-ADCB-C62B326A9160        3         6.5 +j      0.0        6.5       1.0000
   TERMINAL TOTAL ...............................    19.4 +j      0.1       19.4       1.0000
93A748B0-12E1-46B5-AE71-8DB863F5527E        1        -6.5 +j     -0.0        6.5       1.0000
93A748B0-12E1-46B5-AE71-8DB863F5527E        2        -6.5 +j     -0.0        6.5       1.0000
93A748B0-12E1-46B5-AE71-8DB863F5527E        3        -6.5 +j     -0.0        6.5       1.0000
   TERMINAL TOTAL ...............................   -19.4 +j     -0.0       19.4       1.0000

ELEMENT = "Line.BB28A48B-04A2-4E4A-A0CF-138C9976F6A6"
AEADCD37-355F-4DD5-B765-7F68478228A0        1         0.6 +j      0.0        0.6       1.0000
AEADCD37-355F-4DD5-B765-7F68478228A0        2         0.6 +j      0.0        0.6       1.0000
AEADCD37-355F-4DD5-B765-7F68478228A0        3         0.6 +j      0.0        0.6       1.0000
   TERMINAL TOTAL ...............................     1.7 +j      0.0        1.7       1.0000
9198BD4C-8E28-4EF6-8649-F795662F7E47        1        -0.6 +j     -0.0        0.6       1.0000
9198BD4C-8E28-4EF6-8649-F795662F7E47        2        -0.6 +j      0.0        0.6      -1.0000
9198BD4C-8E28-4EF6-8649-F795662F7E47        3        -0.6 +j     -0.0        0.6       1.0000
   TERMINAL TOTAL ...............................    -1.7 +j     -0.0        1.7       1.0000

ELEMENT = "Line.6B5C0779-D737-4B3F-A97B-805FA9E95787"
AE567475-3545-497C-BE4E-E6840D81ED46        1         0.7 +j     -0.0        0.7      -1.0000
AE567475-3545-497C-BE4E-E6840D81ED46        2         0.7 +j     -0.0        0.7      -1.0000
AE567475-3545-497C-BE4E-E6840D81ED46        3         0.7 +j     -0.0        0.7      -1.0000
   TERMINAL TOTAL ...............................     2.0 +j     -0.0        2.0      -1.0000
F7166F81-0227-4186-AAE6-5131A81DF5A3        1        -0.7 +j      0.0        0.7      -1.0000
F7166F81-0227-4186-AAE6-5131A81DF5A3        2        -0.7 +j      0.0        0.7      -1.0000
F7166F81-0227-4186-AAE6-5131A81DF5A3        3        -0.7 +j      0.0        0.7      -1.0000
   TERMINAL TOTAL ...............................    -2.0 +j      0.0        2.0      -1.0000

ELEMENT = "Line.639C314A-5A45-4A47-8E96-D664C7F0A01F"
D667039E-CE84-40CC-AB17-3F2AAF2A92E1        1         0.7 +j     -0.0        0.7      -1.0000
D667039E-CE84-40CC-AB17-3F2AAF2A92E1        2         0.7 +j     -0.0        0.7      -1.0000
D667039E-CE84-40CC-AB17-3F2AAF2A92E1        3         0.7 +j     -0.0        0.7      -1.0000
   TERMINAL TOTAL ...............................     2.0 +j     -0.0        2.0      -1.0000
AE567475-3545-497C-BE4E-E6840D81ED46        1        -0.7 +j      0.0        0.7      -1.0000
AE567475-3545-497C-BE4E-E6840D81ED46        2        -0.7 +j      0.0        0.7      -1.0000
AE567475-3545-497C-BE4E-E6840D81ED46        3        -0.7 +j      0.0        0.7      -1.0000
   TERMINAL TOTAL ...............................    -2.0 +j      0.0        2.0      -1.0000

ELEMENT = "Line.142514A6-F12E-4538-AC0B-7A0CA62C1851"
D667039E-CE84-40CC-AB17-3F2AAF2A92E1        1         6.6 +j      0.0        6.6       1.0000
D667039E-CE84-40CC-AB17-3F2AAF2A92E1        2         6.6 +j      0.0        6.6       1.0000
D667039E-CE84-40CC-AB17-3F2AAF2A92E1        3         6.6 +j      0.0        6.6       1.0000
   TERMINAL TOTAL ...............................    19.7 +j      0.0       19.7       1.0000
B26A4225-F708-485A-9E6B-7E32E39685B8        1        -6.5 +j      0.0        6.5      -1.0000
B26A4225-F708-485A-9E6B-7E32E39685B8        2        -6.5 +j      0.0        6.5      -1.0000
B26A4225-F708-485A-9E6B-7E32E39685B8        3        -6.5 +j      0.0        6.5      -1.0000
   TERMINAL TOTAL ...............................   -19.6 +j      0.0       19.6      -1.0000

ELEMENT = "Line.4E852749-D578-48AD-88A3-EB5EB06F1A18"
C06E8B04-406C-4505-9A7D-CAA26D521809        1         7.5 +j      0.0        7.5       1.0000
C06E8B04-406C-4505-9A7D-CAA26D521809        2         7.5 +j      0.0        7.5       1.0000
C06E8B04-406C-4505-9A7D-CAA26D521809        3         7.5 +j      0.0        7.5       1.0000
   TERMINAL TOTAL ...............................    22.6 +j      0.0       22.6       1.0000
D667039E-CE84-40CC-AB17-3F2AAF2A92E1        1        -7.5 +j     -0.0        7.5       1.0000
D667039E-CE84-40CC-AB17-3F2AAF2A92E1        2        -7.5 +j     -0.0        7.5       1.0000
D667039E-CE84-40CC-AB17-3F2AAF2A92E1        3        -7.5 +j     -0.0        7.5       1.0000
   TERMINAL TOTAL ...............................   -22.6 +j     -0.0       22.6       1.0000

ELEMENT = "Line.8F6916FE-6204-487F-A56D-2F7828F98688"
9037AFBD-26B1-473F-BA3F-1EB50330816E        1         6.5 +j      0.0        6.5       1.0000
9037AFBD-26B1-473F-BA3F-1EB50330816E        2         6.5 +j      0.0        6.5       1.0000
9037AFBD-26B1-473F-BA3F-1EB50330816E        3         6.5 +j      0.0        6.5       1.0000
   TERMINAL TOTAL ...............................    19.6 +j      0.0       19.6       1.0000
E5130A20-EE25-47F4-B59A-5F8AE412150F        1        -6.5 +j      0.0        6.5      -1.0000
E5130A20-EE25-47F4-B59A-5F8AE412150F        2        -6.5 +j      0.0        6.5      -1.0000
E5130A20-EE25-47F4-B59A-5F8AE412150F        3        -6.5 +j      0.0        6.5      -1.0000
   TERMINAL TOTAL ...............................   -19.6 +j      0.0       19.6      -1.0000

ELEMENT = "Line.A660FC87-1FA6-440D-B920-682DFF131A81"
9037AFBD-26B1-473F-BA3F-1EB50330816E        1         0.1 +j     -0.0        0.1      -1.0000
9037AFBD-26B1-473F-BA3F-1EB50330816E        2         0.1 +j     -0.0        0.1      -1.0000
9037AFBD-26B1-473F-BA3F-1EB50330816E        3         0.1 +j     -0.0        0.1      -1.0000
   TERMINAL TOTAL ...............................     0.2 +j     -0.0        0.2      -1.0000
328D9CBA-E71E-4B41-8D16-17C65132A7BE        1        -0.1 +j      0.0        0.1      -1.0000
328D9CBA-E71E-4B41-8D16-17C65132A7BE        2        -0.1 +j      0.0        0.1      -1.0000
328D9CBA-E71E-4B41-8D16-17C65132A7BE        3        -0.1 +j      0.0        0.1      -1.0000
   TERMINAL TOTAL ...............................    -0.2 +j      0.0        0.2      -1.0000

ELEMENT = "Line.995BECB8-2244-4164-9ECC-CF3BCCEB3965"
18DF96D8-A15C-4473-95AE-8731C654A42A        1         7.8 +j      0.0        7.8       1.0000
18DF96D8-A15C-4473-95AE-8731C654A42A        2         7.8 +j      0.0        7.8       1.0000
18DF96D8-A15C-4473-95AE-8731C654A42A        3         7.8 +j      0.0        7.8       1.0000
   TERMINAL TOTAL ...............................    23.4 +j      0.0       23.4       1.0000
9037AFBD-26B1-473F-BA3F-1EB50330816E        1        -7.8 +j     -0.0        7.8       1.0000
9037AFBD-26B1-473F-BA3F-1EB50330816E        2        -7.8 +j     -0.0        7.8       1.0000
9037AFBD-26B1-473F-BA3F-1EB50330816E        3        -7.8 +j     -0.0        7.8       1.0000
   TERMINAL TOTAL ...............................   -23.4 +j     -0.0       23.4       1.0000

ELEMENT = "Line.543D91BB-77B4-44F9-9967-70F3174A633C"
5AD8D989-5E23-4E96-96CD-4B3EF77CB000        1         6.4 +j      0.0        6.4       1.0000
5AD8D989-5E23-4E96-96CD-4B3EF77CB000        2         6.4 +j      0.0        6.4       1.0000
5AD8D989-5E23-4E96-96CD-4B3EF77CB000        3         6.4 +j      0.0        6.4       1.0000
   TERMINAL TOTAL ...............................    19.1 +j      0.0       19.1       1.0000
0754658C-CEA4-4C89-BFEA-CC44EFDADE3F        1        -6.4 +j     -0.0        6.4       1.0000
0754658C-CEA4-4C89-BFEA-CC44EFDADE3F        2        -6.4 +j     -0.0        6.4       1.0000
0754658C-CEA4-4C89-BFEA-CC44EFDADE3F        3        -6.4 +j      0.0        6.4      -1.0000
   TERMINAL TOTAL ...............................   -19.1 +j     -0.0       19.1       1.0000

ELEMENT = "Line.27672613-BDEF-4AD9-B8B4-7AE45D4227F0"
F02A51C5-0487-49FE-A53C-19F24B979CAD        1         0.3 +j      0.0        0.3       1.0000
F02A51C5-0487-49FE-A53C-19F24B979CAD        2         0.3 +j      0.0        0.3       1.0000
F02A51C5-0487-49FE-A53C-19F24B979CAD        3         0.3 +j      0.0        0.3       1.0000
   TERMINAL TOTAL ...............................     0.9 +j      0.0        0.9       1.0000
641FC047-02CC-4BD0-AC73-5D4D6561C687        1        -0.3 +j     -0.0        0.3       1.0000
641FC047-02CC-4BD0-AC73-5D4D6561C687        2        -0.3 +j      0.0        0.3      -1.0000
641FC047-02CC-4BD0-AC73-5D4D6561C687        3        -0.3 +j     -0.0        0.3       1.0000
   TERMINAL TOTAL ...............................    -0.9 +j     -0.0        0.9       1.0000

ELEMENT = "Line.7D3D12E5-0D25-4ACF-8FE8-91355A1BF7B0"
8D61CE66-3CE3-48F6-8819-7AACD2C1C768        1        24.4 +j      0.1       24.4       1.0000
8D61CE66-3CE3-48F6-8819-7AACD2C1C768        2        24.4 +j      0.1       24.4       1.0000
8D61CE66-3CE3-48F6-8819-7AACD2C1C768        3        24.4 +j      0.1       24.4       1.0000
   TERMINAL TOTAL ...............................    73.2 +j      0.4       73.2       1.0000
E1FC24B3-1F74-44A3-9F8E-11BCA00319F0        1       -24.4 +j     -0.0       24.4       1.0000
E1FC24B3-1F74-44A3-9F8E-11BCA00319F0        2       -24.4 +j     -0.0       24.4       1.0000
E1FC24B3-1F74-44A3-9F8E-11BCA00319F0        3       -24.4 +j     -0.0       24.4       1.0000
   TERMINAL TOTAL ...............................   -73.1 +j     -0.1       73.1       1.0000

ELEMENT = "Line.7C0CE3AF-E06B-4BAE-8E8B-8502CFC07E34"
E1FC24B3-1F74-44A3-9F8E-11BCA00319F0        1         0.3 +j      0.0        0.3       1.0000
E1FC24B3-1F74-44A3-9F8E-11BCA00319F0        2         0.3 +j      0.0        0.3       1.0000
E1FC24B3-1F74-44A3-9F8E-11BCA00319F0        3         0.3 +j      0.0        0.3       1.0000
   TERMINAL TOTAL ...............................     0.9 +j      0.0        0.9       1.0000
...