gis/vsource_24ab4116-d257-41b1-960b-481ced9684f1_VLN_Node.Txt

LINE-GROUND and LINE-LINE VOLTAGES BY BUS & NODE

Bus                                     Node    VLN (kV)   Angle      pu     Base kV    Node-Node   VLL (kV)  Angle      pu

24AB4116-D257-41B1-960B-481CED9684F1 .. 1       7.1995 /_ -120.0         1    12.470        1-2      12.47 /_  -90.0         1
   -                                    2       7.1995 /_  120.0         1    12.470        2-3      12.47 /_  150.0         1
   -                                    3       7.1995 /_    0.0         1    12.470        3-1      12.47 /_   30.0         1
5FF9A8DC-E808-48B4-9A51-B4EF0C8AAE7D_HT 1       7.1976 /_ -120.0   0.99973    12.470        1-2     12.467 /_  -90.0   0.99973
   -                                    2       7.1976 /_  120.0   0.99973    12.470        2-3     12.467 /_  150.0   0.99973
   -                                    3       7.1976 /_    0.0   0.99973    12.470        3-1     12.467 /_   30.0   0.99973
5FF9A8DC-E808-48B4-9A51-B4EF0C8AAE7D .. 1      0.27681 /_ -120.1   0.99883     0.480        1-2    0.47944 /_  -90.1   0.99883
   -                                    2      0.27681 /_  119.9   0.99883     0.480        2-3    0.47944 /_  149.9   0.99883
   -                                    3      0.27681 /_   -0.1   0.99883     0.480        3-1    0.47944 /_   29.9   0.99883
EF7E1CF1-F33B-4256-8A55-AD94FBC7A080_HT 1        7.197 /_ -120.0   0.99964    12.470        1-2     12.466 /_  -90.0   0.99964
   -                                    2        7.197 /_  120.0   0.99964    12.470        2-3     12.466 /_  150.0   0.99964
   -                                    3        7.197 /_    0.0   0.99964    12.470        3-1     12.466 /_   30.0   0.99964
EF7E1CF1-F33B-4256-8A55-AD94FBC7A080 .. 1      0.27445 /_ -121.0   0.99034     0.480        1-2    0.47536 /_  -91.0   0.99034
   -                                    2      0.27445 /_  119.0   0.99034     0.480        2-3    0.47536 /_  149.0   0.99034
   -                                    3      0.27445 /_   -1.0   0.99034     0.480        3-1    0.47536 /_   29.0   0.99034
C06E8B04-406C-4505-9A7D-CAA26D521809_HT 1       7.1969 /_ -120.0   0.99962    12.470        1-2     12.465 /_  -90.0   0.99962
   -                                    2       7.1969 /_  120.0   0.99962    12.470        2-3     12.465 /_  150.0   0.99962
   -                                    3       7.1969 /_    0.0   0.99962    12.470        3-1     12.465 /_   30.0   0.99962
C06E8B04-406C-4505-9A7D-CAA26D521809 .. 1      0.27551 /_ -120.6   0.99416     0.480        1-2     0.4772 /_  -90.6   0.99416
   -                                    2      0.27551 /_  119.4   0.99416     0.480        2-3     0.4772 /_  149.4   0.99416
   -                                    3      0.27551 /_   -0.6   0.99416     0.480        3-1     0.4772 /_   29.4   0.99416
18DF96D8-A15C-4473-95AE-8731C654A42A_HT 1       7.1969 /_ -120.0   0.99963    12.470        1-2     12.465 /_  -90.0   0.99963
   -                                    2       7.1969 /_  120.0   0.99963    12.470        2-3     12.465 /_  150.0   0.99963
   -                                    3       7.1969 /_    0.0   0.99963    12.470        3-1     12.465 /_   30.0   0.99963
18DF96D8-A15C-4473-95AE-8731C654A42A .. 1      0.27546 /_ -120.6   0.99398     0.480        1-2    0.47711 /_  -90.6   0.99398
   -                                    2      0.27546 /_  119.4   0.99398     0.480        2-3    0.47711 /_  149.4   0.99398
   -                                    3      0.27546 /_   -0.6   0.99398     0.480        3-1    0.47711 /_   29.4   0.99398
8D61CE66-3CE3-48F6-8819-7AACD2C1C768_HT 1        7.197 /_ -120.0   0.99965    12.470        1-2     12.466 /_  -90.0   0.99965
   -                                    2        7.197 /_  120.0   0.99965    12.470        2-3     12.466 /_  150.0   0.99965
   -                                    3        7.197 /_    0.0   0.99965    12.470        3-1     12.466 /_   30.0   0.99965
8D61CE66-3CE3-48F6-8819-7AACD2C1C768 .. 1        0.272 /_ -121.9   0.98149     0.480        1-2    0.47112 /_  -91.9   0.98149
   -                                    2        0.272 /_  118.1   0.98149     0.480        2-3    0.47112 /_  148.1   0.98149
   -                                    3        0.272 /_   -1.9   0.98149     0.480        3-1    0.47112 /_   28.1   0.98149
19D1EB19-8C54-4ED6-96D5-F236737EB4A8_HT 1       7.1968 /_ -120.0   0.99961    12.470        1-2     12.465 /_  -90.0   0.99961
   -                                    2       7.1968 /_  120.0   0.99961    12.470        2-3     12.465 /_  150.0   0.99961
   -                                    3       7.1968 /_    0.0   0.99961    12.470        3-1     12.465 /_   30.0   0.99961
19D1EB19-8C54-4ED6-96D5-F236737EB4A8 .. 1       0.2745 /_ -121.0   0.99052     0.480        1-2    0.47545 /_  -91.0   0.99052
   -                                    2       0.2745 /_  119.0   0.99052     0.480        2-3    0.47545 /_  149.0   0.99052
   -                                    3       0.2745 /_   -1.0   0.99052     0.480        3-1    0.47545 /_   29.0   0.99052
FDE6C6F0-66F1-43EE-94BB-65C3F330BD74_HT 1       7.1968 /_ -120.0   0.99962    12.470        1-2     12.465 /_  -90.0   0.99962
   -                                    2       7.1968 /_  120.0   0.99962    12.470        2-3     12.465 /_  150.0   0.99962
   -                                    3       7.1968 /_    0.0   0.99962    12.470        3-1     12.465 /_   30.0   0.99962
FDE6C6F0-66F1-43EE-94BB-65C3F330BD74 .. 1      0.27638 /_ -120.3    0.9973     0.480        1-2     0.4787 /_  -90.3    0.9973
   -                                    2      0.27638 /_  119.7    0.9973     0.480        2-3     0.4787 /_  149.7    0.9973
   -                                    3      0.27638 /_   -0.3    0.9973     0.480        3-1     0.4787 /_   29.7    0.9973
1E49A5A7-CEC4-415A-8EA3-33F157D3592A_HT 1       7.1963 /_ -120.0   0.99954    12.470        1-2     12.464 /_  -90.0   0.99954
   -                                    2       7.1963 /_  120.0   0.99954    12.470        2-3     12.464 /_  150.0   0.99954
   -                                    3       7.1963 /_    0.0   0.99954    12.470        3-1     12.464 /_   30.0   0.99954
1E49A5A7-CEC4-415A-8EA3-33F157D3592A .. 1      0.27682 /_ -120.1    0.9989     0.480        1-2    0.47947 /_  -90.1    0.9989
   -                                    2      0.27682 /_  119.9    0.9989     0.480        2-3    0.47947 /_  149.9    0.9989
   -                                    3      0.27682 /_   -0.1    0.9989     0.480        3-1    0.47947 /_   29.9    0.9989
55B8B78C-31CD-4574-90AA-BF37208FAEA1_HT 1       7.1963 /_ -120.0   0.99954    12.470        1-2     12.464 /_  -90.0   0.99954
   -                                    2       7.1963 /_  120.0   0.99954    12.470        2-3     12.464 /_  150.0   0.99954
   -                                    3       7.1963 /_    0.0   0.99954    12.470        3-1     12.464 /_   30.0   0.99954
55B8B78C-31CD-4574-90AA-BF37208FAEA1 .. 1      0.27245 /_ -121.8   0.98311     0.480        1-2    0.47189 /_  -91.8   0.98311
   -                                    2      0.27245 /_  118.2   0.98311     0.480        2-3    0.47189 /_  148.2   0.98311
   -                                    3      0.27245 /_   -1.8   0.98311     0.480        3-1    0.47189 /_   28.2   0.98311
79B5B874-4748-484A-9185-E5D5B14ABC7D_HT 1       7.1964 /_ -120.0   0.99956    12.470        1-2     12.465 /_  -90.0   0.99956
   -                                    2       7.1964 /_  120.0   0.99956    12.470        2-3     12.465 /_  150.0   0.99956
   -                                    3       7.1964 /_    0.0   0.99956    12.470        3-1     12.465 /_   30.0   0.99956
79B5B874-4748-484A-9185-E5D5B14ABC7D .. 1      0.27236 /_ -121.9   0.98279     0.480        1-2    0.47174 /_  -91.9   0.98279
   -                                    2      0.27236 /_  118.1   0.98279     0.480        2-3    0.47174 /_  148.1   0.98279
   -                                    3      0.27236 /_   -1.9   0.98279     0.480        3-1    0.47174 /_   28.1   0.98279
DCDE0BFE-3A3D-4FF8-8A75-7CC11B4D34A1_HT 1       7.1969 /_ -120.0   0.99963    12.470        1-2     12.465 /_  -90.0   0.99963
   -                                    2       7.1969 /_  120.0   0.99963    12.470        2-3     12.465 /_  150.0   0.99963
   -                                    3       7.1969 /_    0.0   0.99963    12.470        3-1     12.465 /_   30.0   0.99963
DCDE0BFE-3A3D-4FF8-8A75-7CC11B4D34A1 .. 1      0.27461 /_ -120.9   0.99092     0.480        1-2    0.47564 /_  -90.9   0.99092
   -                                    2      0.27461 /_  119.1   0.99092     0.480        2-3    0.47564 /_  149.1   0.99092
   -                                    3      0.27461 /_   -0.9   0.99092     0.480        3-1    0.47564 /_   29.1   0.99092
FF4E789F-8CC0-412D-801F-775A88FD5D87_HT 1       7.1982 /_ -120.0   0.99981    12.470        1-2     12.468 /_  -90.0   0.99981
   -                                    2       7.1982 /_  120.0   0.99981    12.470        2-3     12.468 /_  150.0   0.99981
   -                                    3       7.1982 /_    0.0   0.99981    12.470        3-1     12.468 /_   30.0   0.99981
FF4E789F-8CC0-412D-801F-775A88FD5D87 .. 1      0.27579 /_ -120.5   0.99517     0.480        1-2    0.47768 /_  -90.5   0.99517
   -                                    2      0.27579 /_  119.5   0.99517     0.480        2-3    0.47768 /_  149.5   0.99517
   -                                    3      0.27579 /_   -0.5   0.99517     0.480        3-1    0.47768 /_   29.5   0.99517
4CB1E7C3-C716-481D-A9CC-7B522F1AD926_HT 1       7.1987 /_ -120.0   0.99988    12.470        1-2     12.468 /_  -90.0   0.99988
   -                                    2       7.1987 /_  120.0   0.99988    12.470        2-3     12.468 /_  150.0   0.99988
   -                                    3       7.1987 /_    0.0   0.99988    12.470        3-1     12.468 /_   30.0   0.99988
4CB1E7C3-C716-481D-A9CC-7B522F1AD926 .. 1      0.27438 /_ -121.0   0.99009     0.480        1-2    0.47524 /_  -91.0   0.99009
   -                                    2      0.27438 /_  119.0   0.99009     0.480        2-3    0.47524 /_  149.0   0.99009
   -                                    3      0.27438 /_   -1.0   0.99009     0.480        3-1    0.47524 /_   29.0   0.99009
3D69988E-D438-41D1-8509-A035E81E2F4E_HT 1       7.1995 /_ -120.0         1    12.470        1-2      12.47 /_  -90.0         1
   -                                    2       7.1995 /_  120.0         1    12.470        2-3      12.47 /_  150.0         1
   -                                    3       7.1995 /_    0.0         1    12.470        3-1      12.47 /_   30.0         1
3D69988E-D438-41D1-8509-A035E81E2F4E .. 1      0.27214 /_ -121.8   0.98199     0.480        1-2    0.47136 /_  -91.8   0.98199
   -                                    2      0.27214 /_  118.2   0.98199     0.480        2-3    0.47136 /_  148.2   0.98199
   -                                    3      0.27214 /_   -1.8   0.98199     0.480        3-1    0.47136 /_   28.2   0.98199
51E400DD-7C7C-4F5A-89DA-C0F4EA619A3A .. 1      0.27681 /_ -120.1   0.99883     0.480        1-2    0.47944 /_  -90.1   0.99883
   -                                    2      0.27681 /_  119.9   0.99883     0.480        2-3    0.47944 /_  149.9   0.99883
   -                                    3      0.27681 /_   -0.1   0.99883     0.480        3-1    0.47944 /_   29.9   0.99883
64ACED96-2084-4E76-ADCB-C62B326A9160 .. 1      0.27392 /_ -121.2   0.98841     0.480        1-2    0.47444 /_  -91.2   0.98841
   -                                    2      0.27392 /_  118.8   0.98841     0.480        2-3    0.47444 /_  148.8   0.98841
   -                                    3      0.27392 /_   -1.2   0.98841     0.480        3-1    0.47444 /_   28.8   0.98841
93A748B0-12E1-46B5-AE71-8DB863F5527E .. 1      0.27365 /_ -121.2   0.98744     0.480        1-2    0.47397 /_  -91.2   0.98744
   -                                    2      0.27365 /_  118.8   0.98744     0.480        2-3    0.47397 /_  148.8   0.98744
   -                                    3      0.27365 /_   -1.2   0.98744     0.480        3-1    0.47397 /_   28.8   0.98744
A16EA384-8006-4C87-8506-1C3E7FCD55E9 .. 1      0.27338 /_ -121.3   0.98648     0.480        1-2    0.47351 /_  -91.3   0.98648
   -                                    2      0.27338 /_  118.7   0.98648     0.480        2-3    0.47351 /_  148.7   0.98648
   -                                    3      0.27338 /_   -1.3   0.98648     0.480        3-1    0.47351 /_   28.7   0.98648
38360E68-8BFD-42B0-8464-B194C6E1DC1D .. 1      0.27366 /_ -121.2   0.98748     0.480        1-2    0.47399 /_  -91.2   0.98748
   -                                    2      0.27366 /_  118.8   0.98748     0.480        2-3    0.47399 /_  148.8   0.98748
   -                                    3      0.27366 /_   -1.2   0.98748     0.480        3-1    0.47399 /_   28.8   0.98748
CF58F485-69E7-4AA0-8336-7281D0779549 .. 1      0.27343 /_ -121.3   0.98665     0.480        1-2    0.47359 /_  -91.3   0.98665
   -                                    2      0.27343 /_  118.7   0.98665     0.480        2-3    0.47359 /_  148.7   0.98665
   -                                    3      0.27343 /_   -1.3   0.98665     0.480        3-1    0.47359 /_   28.7   0.98665
AEADCD37-355F-4DD5-B765-7F68478228A0 .. 1       0.2734 /_ -121.3   0.98655     0.480        1-2    0.47354 /_  -91.3   0.98655
   -                                    2       0.2734 /_  118.7   0.98655     0.480        2-3    0.47354 /_  148.7   0.98655
   -                                    3       0.2734 /_   -1.3   0.98655     0.480        3-1    0.47354 /_   28.7   0.98655
9198BD4C-8E28-4EF6-8649-F795662F7E47 .. 1      0.27338 /_ -121.3   0.98646     0.480        1-2     0.4735 /_  -91.3   0.98646
   -                                    2      0.27338 /_  118.7   0.98646     0.480        2-3     0.4735 /_  148.7   0.98646
   -                                    3      0.27338 /_   -1.3   0.98646     0.480        3-1     0.4735 /_   28.7   0.98646
AE567475-3545-497C-BE4E-E6840D81ED46 .. 1      0.27541 /_ -120.6   0.99379     0.480        1-2    0.47702 /_  -90.6   0.99379
   -                                    2      0.27541 /_  119.4   0.99379     0.480        2-3    0.47702 /_  149.4   0.99379
   -                                    3      0.27541 /_   -0.6   0.99379     0.480        3-1    0.47702 /_   29.4   0.99379
F7166F81-0227-4186-AAE6-5131A81DF5A3 .. 1      0.27537 /_ -120.6   0.99367     0.480        1-2    0.47696 /_  -90.6   0.99367
   -                                    2      0.27537 /_  119.4   0.99367     0.480        2-3    0.47696 /_  149.4   0.99367
   -                                    3      0.27537 /_   -0.6   0.99367     0.480        3-1    0.47696 /_   29.4   0.99367
D667039E-CE84-40CC-AB17-3F2AAF2A92E1 .. 1      0.27543 /_ -120.6   0.99389     0.480        1-2    0.47707 /_  -90.6   0.99389
   -                                    2      0.27543 /_  119.4   0.99389     0.480        2-3    0.47707 /_  149.4   0.99389
   -                                    3      0.27543 /_   -0.6   0.99389     0.480        3-1    0.47707 /_   29.4   0.99389
B26A4225-F708-485A-9E6B-7E32E39685B8 .. 1      0.27511 /_ -120.7   0.99273     0.480        1-2    0.47651 /_  -90.7   0.99273
   -                                    2      0.27511 /_  119.3   0.99273     0.480        2-3    0.47651 /_  149.3   0.99273
   -                                    3      0.27511 /_   -0.7   0.99273     0.480        3-1    0.47651 /_   29.3   0.99273
9037AFBD-26B1-473F-BA3F-1EB50330816E .. 1      0.27532 /_ -120.6   0.99347     0.480        1-2    0.47686 /_  -90.6   0.99347
   -                                    2      0.27532 /_  119.4   0.99347     0.480        2-3    0.47686 /_  149.4   0.99347
   -                                    3      0.27532 /_   -0.6   0.99347     0.480        3-1    0.47686 /_   29.4   0.99347
E5130A20-EE25-47F4-B59A-5F8AE412150F .. 1        0.275 /_ -120.7   0.99231     0.480        1-2    0.47631 /_  -90.7   0.99231
   -                                    2        0.275 /_  119.3   0.99231     0.480        2-3    0.47631 /_  149.3   0.99231
   -                                    3        0.275 /_   -0.7   0.99231     0.480        3-1    0.47631 /_   29.3   0.99231
328D9CBA-E71E-4B41-8D16-17C65132A7BE .. 1      0.27531 /_ -120.6   0.99346     0.480        1-2    0.47686 /_  -90.6   0.99346
   -                                    2      0.27531 /_  119.4   0.99346     0.480        2-3    0.47686 /_  149.4   0.99346
   -                                    3      0.27531 /_   -0.6   0.99346     0.480        3-1    0.47686 /_   29.4   0.99346
5AD8D989-5E23-4E96-96CD-4B3EF77CB000 .. 1      0.27134 /_ -122.2   0.97911     0.480        1-2    0.46997 /_  -92.2   0.97911
   -                                    2      0.27134 /_  117.8   0.97911     0.480        2-3    0.46997 /_  147.8   0.97911
   -                                    3      0.27134 /_   -2.2   0.97911     0.480        3-1    0.46997 /_   27.8   0.97911
0754658C-CEA4-4C89-BFEA-CC44EFDADE3F .. 1      0.27117 /_ -122.3    0.9785     0.480        1-2    0.46968 /_  -92.3    0.9785
   -                                    2      0.27117 /_  117.7    0.9785     0.480        2-3    0.46968 /_  147.7    0.9785
   -                                    3      0.27117 /_   -2.3    0.9785     0.480        3-1    0.46968 /_   27.7    0.9785
F02A51C5-0487-49FE-A53C-19F24B979CAD .. 1      0.27154 /_ -122.1   0.97983     0.480        1-2    0.47032 /_  -92.1   0.97983
   -                                    2      0.27154 /_  117.9   0.97983     0.480        2-3    0.47032 /_  147.9   0.97983
   -                                    3      0.27154 /_   -2.1   0.97983     0.480        3-1    0.47032 /_   27.9   0.97983
641FC047-02CC-4BD0-AC73-5D4D6561C687 .. 1      0.27153 /_ -122.1    0.9798     0.480        1-2     0.4703 /_  -92.1    0.9798
   -                                    2      0.27153 /_  117.9    0.9798     0.480        2-3     0.4703 /_  147.9    0.9798
   -                                    3      0.27153 /_   -2.1    0.9798     0.480        3-1     0.4703 /_   27.9    0.9798
E1FC24B3-1F74-44A3-9F8E-11BCA00319F0 .. 1      0.27155 /_ -122.1   0.97986     0.480        1-2    0.47033 /_  -92.1   0.97986
   -                                    2      0.27155 /_  117.9   0.97986     0.480        2-3    0.47033 /_  147.9   0.97986
   -                                    3      0.27155 /_   -2.1   0.97986     0.480        3-1    0.47033 /_   27.9   0.97986
3E990ED5-8ADD-498E-B152-F419EEF4E798 .. 1      0.27134 /_ -122.2   0.97911     0.480        1-2    0.46997 /_  -92.2   0.97911
   -                                    2      0.27134 /_  117.8   0.97911     0.480        2-3    0.46997 /_  147.8   0.97911
   -                                    3      0.27134 /_   -2.2   0.97911     0.480        3-1    0.46997 /_   27.8   0.97911
6A9640E9-3A56-412D-B2B0-6DCE205C554B .. 1      0.27114 /_ -122.3   0.97838     0.480        1-2    0.46962 /_  -92.3   0.97838
   -                                    2      0.27114 /_  117.7   0.97838     0.480        2-3    0.46962 /_  147.7   0.97838
   -                                    3      0.27114 /_   -2.3   0.97838     0.480        3-1    0.46962 /_   27.7   0.97838
779D9F78-74A0-4A10-BEA4-0FFCD03EA93D .. 1      0.27431 /_ -121.0   0.98983     0.480        1-2    0.47512 /_  -91.0   0.98983
   -                                    2      0.27431 /_  119.0   0.98983     0.480        2-3    0.47512 /_  149.0   0.98983
   -                                    3      0.27431 /_   -1.0   0.98983     0.480        3-1    0.47512 /_   29.0   0.98983
B9D3E2B6-9C11-45AA-AC31-6450E3001EFA .. 1      0.27374 /_ -121.2   0.98776     0.480        1-2    0.47412 /_  -91.2   0.98776
   -                                    2      0.27374 /_  118.8   0.98776     0.480        2-3    0.47412 /_  148.8   0.98776
   -                                    3      0.27374 /_   -1.2   0.98776     0.480        3-1    0.47412 /_   28.8   0.98776
05C6D8B1-EA32-44E1-85C1-3D5DEF65086A .. 1      0.27636 /_ -120.3   0.99724     0.480        1-2    0.47868 /_  -90.3   0.99724
   -                                    2      0.27636 /_  119.7   0.99724     0.480        2-3    0.47868 /_  149.7   0.99724
   -                                    3      0.27636 /_   -0.3   0.99724     0.480        3-1    0.47868 /_   29.7   0.99724
29399485-4F29-4710-AF7F-6791E8FC381B .. 1      0.27681 /_ -120.1   0.99885     0.480        1-2    0.47945 /_  -90.1   0.99885
   -                                    2      0.27681 /_  119.9   0.99885     0.480        2-3    0.47945 /_  149.9   0.99885
   -                                    3      0.27681 /_   -0.1   0.99885     0.480        3-1    0.47945 /_   29.9   0.99885
900B5ABC-EC7F-4AE4-8FF5-A5ED8B86ECED .. 1      0.27679 /_ -120.1   0.99877     0.480        1-2    0.47941 /_  -90.1   0.99877
   -                                    2      0.27679 /_  119.9   0.99877     0.480        2-3    0.47941 /_  149.9   0.99877
   -                                    3      0.27679 /_   -0.1   0.99877     0.480        3-1    0.47941 /_   29.9   0.99877
88CEB0DC-AB48-4B87-A001-0A6B423266E9 .. 1      0.27171 /_ -122.2   0.98044     0.480        1-2    0.47061 /_  -92.2   0.98044
   -                                    2      0.27171 /_  117.8   0.98044     0.480        2-3    0.47061 /_  147.8   0.98044
   -                                    3      0.27171 /_   -2.2   0.98044     0.480        3-1    0.47061 /_   27.8   0.98044
D764F7E6-4C13-40B0-A282-93FC2AC856A3 .. 1      0.27141 /_ -122.4   0.97935     0.480        1-2    0.47009 /_  -92.4   0.97935
   -                                    2      0.27141 /_  117.6   0.97935     0.480        2-3    0.47009 /_  147.6   0.97935
   -                                    3      0.27141 /_   -2.4   0.97935     0.480        3-1    0.47009 /_   27.6   0.97935
7F6C8C4F-610F-48C1-8ED5-0EA509DEFEBB .. 1      0.27126 /_ -122.5   0.97881     0.480        1-2    0.46983 /_  -92.5   0.97881
   -                                    2      0.27126 /_  117.5   0.97881     0.480        2-3    0.46983 /_  147.5   0.97881
   -                                    3      0.27126 /_   -2.5   0.97881     0.480        3-1    0.46983 /_   27.5   0.97881
CD609C28-61D1-4D7F-8611-1286EB18CE70 .. 1      0.27119 /_ -122.5   0.97857     0.480        1-2    0.46971 /_  -92.5   0.97857
   -                                    2      0.27119 /_  117.5   0.97857     0.480        2-3    0.46971 /_  147.5   0.97857
   -                                    3      0.27119 /_   -2.5   0.97857     0.480        3-1    0.46971 /_   27.5   0.97857
C3F2CF9C-F9A2-4415-8FAC-A6AA9CCDD5BD .. 1      0.27112 /_ -122.5   0.97832     0.480        1-2     0.4696 /_  -92.5   0.97832
   -                                    2      0.27112 /_  117.5   0.97832     0.480        2-3     0.4696 /_  147.5   0.97832
   -                                    3      0.27112 /_   -2.5   0.97832     0.480        3-1     0.4696 /_   27.5   0.97832
2F15E681-D391-49F9-AC6C-E9471CA7E957 .. 1       0.2717 /_ -122.2   0.98042     0.480        1-2     0.4706 /_  -92.2   0.98042
   -                                    2       0.2717 /_  117.8   0.98042     0.480        2-3     0.4706 /_  147.8   0.98042
   -                                    3       0.2717 /_   -2.2   0.98042     0.480        3-1     0.4706 /_   27.8   0.98042
851C3C74-63D9-4B68-8756-89BD42E7D788 .. 1      0.27207 /_ -122.0   0.98176     0.480        1-2    0.47124 /_  -92.0   0.98176
   -                                    2      0.27207 /_  118.0   0.98176     0.480        2-3    0.47124 /_  148.0   0.98176
   -                                    3      0.27207 /_   -2.0   0.98176     0.480        3-1    0.47124 /_   28.0   0.98176
481B4156-086D-4718-8C63-DC41BFD4F4C9 .. 1      0.27153 /_ -122.3   0.97978     0.480        1-2     0.4703 /_  -92.3   0.97978
   -                                    2      0.27153 /_  117.7   0.97978     0.480        2-3     0.4703 /_  147.7   0.97978
   -                                    3      0.27153 /_   -2.3   0.97978     0.480        3-1     0.4703 /_   27.7   0.97978
733B5182-AE82-43E4-8E87-502CF52AFF85 .. 1       0.2715 /_ -122.4   0.97969     0.480        1-2    0.47025 /_  -92.4   0.97969
   -                                    2       0.2715 /_  117.6   0.97969     0.480        2-3    0.47025 /_  147.6   0.97969
   -                                    3       0.2715 /_   -2.4   0.97969     0.480        3-1    0.47025 /_   27.6   0.97969
CE68466A-3C9D-4B70-984D-39C2D4C83DFC .. 1      0.27155 /_ -122.3   0.97988     0.480        1-2    0.47034 /_  -92.3   0.97988
   -                                    2      0.27155 /_  117.7   0.97988     0.480        2-3    0.47034 /_  147.7   0.97988
   -                                    3      0.27155 /_   -2.3   0.97988     0.480        3-1    0.47034 /_   27.7   0.97988
62926CBF-A806-462A-874D-2491AE8F4891 .. 1      0.27152 /_ -122.3   0.97976     0.480        1-2    0.47028 /_  -92.3   0.97976
   -                                    2      0.27152 /_  117.7   0.97976     0.480        2-3    0.47028 /_  147.7   0.97976
   -                                    3      0.27152 /_   -2.3   0.97976     0.480        3-1    0.47028 /_   27.7   0.97976
6D91FA46-2DEF-41AC-A44E-0EC1ED25E35A .. 1      0.27199 /_ -122.1   0.98146     0.480        1-2     0.4711 /_  -92.1   0.98146
   -                                    2      0.27199 /_  117.9   0.98146     0.480        2-3     0.4711 /_  147.9   0.98146
   -                                    3      0.27199 /_   -2.1   0.98146     0.480        3-1     0.4711 /_   27.9   0.98146
38DDCCA1-5A42-4440-B875-C6AAB7F58750 .. 1      0.27182 /_ -122.2   0.98084     0.480        1-2     0.4708 /_  -92.2   0.98084
   -                                    2      0.27182 /_  117.8   0.98084     0.480        2-3     0.4708 /_  147.8   0.98084
   -                                    3      0.27182 /_   -2.2   0.98084     0.480        3-1     0.4708 /_   27.8   0.98084
D941DF2E-20F2-4710-BA05-61EE4D06CAA4 .. 1      0.27184 /_ -122.2   0.98093     0.480        1-2    0.47085 /_  -92.2   0.98093
   -                                    2      0.27184 /_  117.8   0.98093     0.480        2-3    0.47085 /_  147.8   0.98093
   -                                    3      0.27184 /_   -2.2   0.98093     0.480        3-1    0.47085 /_   27.8   0.98093
84400613-FDF5-465C-BB59-25BCCC63E964 .. 1      0.27405 /_ -121.0   0.98889     0.480        1-2    0.47467 /_  -91.0   0.98889
   -                                    2      0.27405 /_  119.0   0.98889     0.480        2-3    0.47467 /_  149.0   0.98889
   -                                    3      0.27405 /_   -1.0   0.98889     0.480        3-1    0.47467 /_   29.0   0.98889
BE03EA98-DF62-4721-9C08-8E87B6970974 .. 1      0.27383 /_ -121.1   0.98809     0.480        1-2    0.47428 /_  -91.1   0.98809
   -                                    2      0.27383 /_  118.9   0.98809     0.480        2-3    0.47428 /_  148.9   0.98809
   -                                    3      0.27383 /_   -1.1   0.98809     0.480        3-1    0.47428 /_   28.9   0.98809
F7BFC679-F893-49DF-A34B-C7F2D8975C85 .. 1      0.27432 /_ -121.0   0.98986     0.480        1-2    0.47513 /_  -91.0   0.98986
   -                                    2      0.27432 /_  119.0   0.98986     0.480        2-3    0.47513 /_  149.0   0.98986
   -                                    3      0.27432 /_   -1.0   0.98986     0.480        3-1    0.47513 /_   29.0   0.98986
F65EBC47-745C-47EA-88A7-ABD23FB2FDFC .. 1        0.274 /_ -121.0   0.98871     0.480        1-2    0.47458 /_  -91.0   0.98871
   -                                    2        0.274 /_  119.0   0.98871     0.480        2-3    0.47458 /_  149.0   0.98871
   -                                    3        0.274 /_   -1.0   0.98871     0.480        3-1    0.47458 /_   29.0   0.98871
127A487F-F8E5-49E2-8B09-BB7318466844 .. 1      0.27572 /_ -120.5   0.99493     0.480        1-2    0.47757 /_  -90.5   0.99493
   -                                    2      0.27572 /_  119.5   0.99493     0.480        2-3    0.47757 /_  149.5   0.99493
   -                                    3      0.27572 /_   -0.5   0.99493     0.480        3-1    0.47757 /_   29.5   0.99493
29160497-D557-46EF-953B-030985E86C82 .. 1      0.27553 /_ -120.5   0.99422     0.480        1-2    0.47722 /_  -90.5   0.99422
   -                                    2      0.27553 /_  119.5   0.99422     0.480        2-3    0.47722 /_  149.5   0.99422
   -                                    3      0.27553 /_   -0.5   0.99422     0.480        3-1    0.47722 /_   29.5   0.99422
21A5C737-9853-4B91-9264-5BBA7071C44A .. 1      0.27566 /_ -120.5    0.9947     0.480        1-2    0.47746 /_  -90.5    0.9947
   -                                    2      0.27566 /_  119.5    0.9947     0.480        2-3    0.47746 /_  149.5    0.9947
   -                                    3      0.27566 /_   -0.5    0.9947     0.480        3-1    0.47746 /_   29.5    0.9947
781B2DC1-D43F-410D-8D73-5D054884A778 .. 1      0.27412 /_ -121.1   0.98916     0.480        1-2     0.4748 /_  -91.1   0.98916
   -                                    2      0.27412 /_  118.9   0.98916     0.480        2-3     0.4748 /_  148.9   0.98916
   -                                    3      0.27412 /_   -1.1   0.98916     0.480        3-1     0.4748 /_   28.9   0.98916
...